*** ChampSim Multicore Out-of-Order Simulator ***

Warmup Instructions: 25000000
Simulation Instructions: 25000000
Number of CPUs: 1
Off-chip DRAM Size: 4 GiB Channels: 1 Width: 64-bit Data Rate: 3200 MT/s

VirtualMemory physical capacity: 8588881920 num_ppages: 2096895
VirtualMemory page size: 4096 log2_page_size: 12

CPU 0 runs /home/harshraj/EE/Courses/CS683/PA2-race-of-the-prefetcher/traces/619.lbm_s-2677B.champsimtrace.xz
CPU 0 Bimodal branch predictor
Basic BTB sets: 1024 ways: 8 indirect buffer size: 4096 RAS size: 64
cpu0_L2C Stream Prefetcher  3 4
WARNING: The extended signature CACHE::prefetch_line(ip, base_addr, pf_addr, fill_this_level, prefetch_metadata) is deprecated.
WARNING: Use CACHE::prefetch_line(pf_addr, fill_this_level, prefetch_metadata) instead.
Heartbeat CPU 0 instructions: 10000001 cycles: 2594374 heartbeat IPC: 3.85449 cumulative IPC: 3.85449 (Simulation time: 0 hr 0 min 26 sec) 
Heartbeat CPU 0 instructions: 20000003 cycles: 5184265 heartbeat IPC: 3.86117 cumulative IPC: 3.85783 (Simulation time: 0 hr 0 min 56 sec) 

Warmup complete CPU 0 instructions: 25000001 cycles: 6479275 (Simulation time: 0 hr 1 min 11 sec) 

Heartbeat CPU 0 instructions: 30000002 cycles: 30135259 heartbeat IPC: 0.400786 cumulative IPC: 0.211363 (Simulation time: 0 hr 2 min 50 sec) 
Heartbeat CPU 0 instructions: 40000004 cycles: 77210551 heartbeat IPC: 0.212426 cumulative IPC: 0.21207 (Simulation time: 0 hr 5 min 39 sec) 
Heartbeat CPU 0 instructions: 50000001 cycles: 125404028 heartbeat IPC: 0.207497 cumulative IPC: 0.210217 (Simulation time: 0 hr 7 min 50 sec) 
Finished CPU 0 instructions: 25000000 cycles: 118924753 cumulative IPC: 0.210217 (Simulation time: 0 hr 7 min 50 sec) 

ChampSim completed all CPUs

Region of Interest Statistics

CPU 0 cumulative IPC: 0.210217 instructions: 25000000 cycles: 118924753
cpu0_DTLB TOTAL     ACCESS:    4451035  HIT:    4416988  MISS:      34047
cpu0_DTLB LOAD      ACCESS:    1981066  HIT:    1976445  MISS:       4621
cpu0_DTLB RFO       ACCESS:    2469969  HIT:    2440543  MISS:      29426
cpu0_DTLB PREFETCH  ACCESS:          0  HIT:          0  MISS:          0
cpu0_DTLB WRITEBACK ACCESS:          0  HIT:          0  MISS:          0
cpu0_DTLB TRANSLATION ACCESS:          0  HIT:          0  MISS:          0
cpu0_DTLB PREFETCH  REQUESTED:          0  ISSUED:          0  USEFUL:          0  USELESS:          0
cpu0_DTLB AVERAGE MISS LATENCY: 509.166 cycles
cpu0_ITLB TOTAL     ACCESS:     472704  HIT:     472704  MISS:          0
cpu0_ITLB LOAD      ACCESS:     472704  HIT:     472704  MISS:          0
cpu0_ITLB RFO       ACCESS:          0  HIT:          0  MISS:          0
cpu0_ITLB PREFETCH  ACCESS:          0  HIT:          0  MISS:          0
cpu0_ITLB WRITEBACK ACCESS:          0  HIT:          0  MISS:          0
cpu0_ITLB TRANSLATION ACCESS:          0  HIT:          0  MISS:          0
cpu0_ITLB PREFETCH  REQUESTED:          0  ISSUED:          0  USEFUL:          0  USELESS:          0
cpu0_ITLB AVERAGE MISS LATENCY: -nan cycles
cpu0_L1I TOTAL     ACCESS:     551016  HIT:     551016  MISS:          0
cpu0_L1I LOAD      ACCESS:     551016  HIT:     551016  MISS:          0
cpu0_L1I RFO       ACCESS:          0  HIT:          0  MISS:          0
cpu0_L1I PREFETCH  ACCESS:          0  HIT:          0  MISS:          0
cpu0_L1I WRITEBACK ACCESS:          0  HIT:          0  MISS:          0
cpu0_L1I TRANSLATION ACCESS:          0  HIT:          0  MISS:          0
cpu0_L1I PREFETCH  REQUESTED:          0  ISSUED:          0  USEFUL:          0  USELESS:          0
cpu0_L1I AVERAGE MISS LATENCY: -nan cycles
cpu0_STLB TOTAL     ACCESS:      34047  HIT:      15571  MISS:      18476
cpu0_STLB LOAD      ACCESS:       4621  HIT:          0  MISS:       4621
cpu0_STLB RFO       ACCESS:      29426  HIT:      15571  MISS:      13855
cpu0_STLB PREFETCH  ACCESS:          0  HIT:          0  MISS:          0
cpu0_STLB WRITEBACK ACCESS:          0  HIT:          0  MISS:          0
cpu0_STLB TRANSLATION ACCESS:          0  HIT:          0  MISS:          0
cpu0_STLB PREFETCH  REQUESTED:          0  ISSUED:          0  USEFUL:          0  USELESS:          0
cpu0_STLB AVERAGE MISS LATENCY: 921.55 cycles
cpu0_L1D TOTAL     ACCESS:    5917977  HIT:    3967409  MISS:    1950568
cpu0_L1D LOAD      ACCESS:    1404904  HIT:    1109357  MISS:     295547
cpu0_L1D RFO       ACCESS:    4495559  HIT:    2840547  MISS:    1655012
cpu0_L1D PREFETCH  ACCESS:          0  HIT:          0  MISS:          0
cpu0_L1D WRITEBACK ACCESS:          0  HIT:          0  MISS:          0
cpu0_L1D TRANSLATION ACCESS:      17514  HIT:      17505  MISS:          9
cpu0_L1D PREFETCH  REQUESTED:          0  ISSUED:          0  USEFUL:          0  USELESS:          0
cpu0_L1D AVERAGE MISS LATENCY: 763.92 cycles
cpu0_L2C TOTAL     ACCESS:    3826354  HIT:    2598895  MISS:    1227459
cpu0_L2C LOAD      ACCESS:     295547  HIT:          1  MISS:     295546
cpu0_L2C RFO       ACCESS:    1655012  HIT:     740373  MISS:     914639
cpu0_L2C PREFETCH  ACCESS:     220746  HIT:     203535  MISS:      17211
cpu0_L2C WRITEBACK ACCESS:    1655040  HIT:    1654986  MISS:         54
cpu0_L2C TRANSLATION ACCESS:          9  HIT:          0  MISS:          9
cpu0_L2C PREFETCH  REQUESTED:     261645  ISSUED:     241169  USEFUL:      13764  USELESS:       3447
cpu0_L2C AVERAGE MISS LATENCY: 1213.72 cycles
LLC TOTAL     ACCESS:    2147687  HIT:     947264  MISS:    1200423
LLC LOAD      ACCESS:     295546  HIT:          0  MISS:     295546
LLC RFO       ACCESS:     914594  HIT:      28013  MISS:     886581
LLC PREFETCH  ACCESS:      23000  HIT:       4753  MISS:      18247
LLC WRITEBACK ACCESS:     914538  HIT:     914498  MISS:         40
LLC TRANSLATION ACCESS:          9  HIT:          0  MISS:          9
LLC PREFETCH  REQUESTED:          0  ISSUED:          0  USEFUL:          0  USELESS:          0
LLC AVERAGE MISS LATENCY: 1225.97 cycles

DRAM Statistics
 CHANNEL 0
 RQ ROW_BUFFER_HIT:      35365  ROW_BUFFER_MISS:    1165018
 DBUS AVG_CONGESTED_CYCLE:    4.00299
 WQ ROW_BUFFER_HIT:      14889  ROW_BUFFER_MISS:     871459  FULL:          0


CPU 0 Branch Prediction Accuracy: 95.9842% MPKI: 0.71772 Average ROB Occupancy at Mispredict: 258.899
Branch type MPKI
BRANCH_DIRECT_JUMP: 0
BRANCH_INDIRECT: 0
BRANCH_CONDITIONAL: 0.71772
BRANCH_DIRECT_CALL: 0
BRANCH_INDIRECT_CALL: 0
BRANCH_RETURN: 0
