*** ChampSim Multicore Out-of-Order Simulator ***

Warmup Instructions: 25000000
Simulation Instructions: 25000000
Number of CPUs: 1
Off-chip DRAM Size: 4 GiB Channels: 1 Width: 64-bit Data Rate: 3200 MT/s

VirtualMemory physical capacity: 8588881920 num_ppages: 2096895
VirtualMemory page size: 4096 log2_page_size: 12

CPU 0 runs /home/harshraj/EE/Courses/CS683/PA2-race-of-the-prefetcher/traces/619.lbm_s-2677B.champsimtrace.xz
CPU 0 Bimodal branch predictor
Basic BTB sets: 1024 ways: 8 indirect buffer size: 4096 RAS size: 64
cpu0_L2C Stream Prefetcher  4 4
WARNING: The extended signature CACHE::prefetch_line(ip, base_addr, pf_addr, fill_this_level, prefetch_metadata) is deprecated.
WARNING: Use CACHE::prefetch_line(pf_addr, fill_this_level, prefetch_metadata) instead.
Heartbeat CPU 0 instructions: 10000001 cycles: 2594914 heartbeat IPC: 3.85369 cumulative IPC: 3.85369 (Simulation time: 0 hr 0 min 27 sec) 
Heartbeat CPU 0 instructions: 20000001 cycles: 5185333 heartbeat IPC: 3.86038 cumulative IPC: 3.85703 (Simulation time: 0 hr 0 min 57 sec) 

Warmup complete CPU 0 instructions: 25000001 cycles: 6480561 (Simulation time: 0 hr 1 min 12 sec) 

Heartbeat CPU 0 instructions: 30000002 cycles: 30137861 heartbeat IPC: 0.400761 cumulative IPC: 0.211351 (Simulation time: 0 hr 3 min 1 sec) 
Heartbeat CPU 0 instructions: 40000004 cycles: 77345656 heartbeat IPC: 0.211829 cumulative IPC: 0.21167 (Simulation time: 0 hr 5 min 33 sec) 
Heartbeat CPU 0 instructions: 50000001 cycles: 125689628 heartbeat IPC: 0.206851 cumulative IPC: 0.209716 (Simulation time: 0 hr 7 min 39 sec) 
Finished CPU 0 instructions: 25000000 cycles: 119209067 cumulative IPC: 0.209716 (Simulation time: 0 hr 7 min 39 sec) 

ChampSim completed all CPUs

Region of Interest Statistics

CPU 0 cumulative IPC: 0.209716 instructions: 25000000 cycles: 119209067
cpu0_DTLB TOTAL     ACCESS:    4451436  HIT:    4417389  MISS:      34047
cpu0_DTLB LOAD      ACCESS:    1981679  HIT:    1977058  MISS:       4621
cpu0_DTLB RFO       ACCESS:    2469757  HIT:    2440331  MISS:      29426
cpu0_DTLB PREFETCH  ACCESS:          0  HIT:          0  MISS:          0
cpu0_DTLB WRITEBACK ACCESS:          0  HIT:          0  MISS:          0
cpu0_DTLB TRANSLATION ACCESS:          0  HIT:          0  MISS:          0
cpu0_DTLB PREFETCH  REQUESTED:          0  ISSUED:          0  USEFUL:          0  USELESS:          0
cpu0_DTLB AVERAGE MISS LATENCY: 525.064 cycles
cpu0_ITLB TOTAL     ACCESS:     472908  HIT:     472908  MISS:          0
cpu0_ITLB LOAD      ACCESS:     472908  HIT:     472908  MISS:          0
cpu0_ITLB RFO       ACCESS:          0  HIT:          0  MISS:          0
cpu0_ITLB PREFETCH  ACCESS:          0  HIT:          0  MISS:          0
cpu0_ITLB WRITEBACK ACCESS:          0  HIT:          0  MISS:          0
cpu0_ITLB TRANSLATION ACCESS:          0  HIT:          0  MISS:          0
cpu0_ITLB PREFETCH  REQUESTED:          0  ISSUED:          0  USEFUL:          0  USELESS:          0
cpu0_ITLB AVERAGE MISS LATENCY: -nan cycles
cpu0_L1I TOTAL     ACCESS:     549858  HIT:     549858  MISS:          0
cpu0_L1I LOAD      ACCESS:     549858  HIT:     549858  MISS:          0
cpu0_L1I RFO       ACCESS:          0  HIT:          0  MISS:          0
cpu0_L1I PREFETCH  ACCESS:          0  HIT:          0  MISS:          0
cpu0_L1I WRITEBACK ACCESS:          0  HIT:          0  MISS:          0
cpu0_L1I TRANSLATION ACCESS:          0  HIT:          0  MISS:          0
cpu0_L1I PREFETCH  REQUESTED:          0  ISSUED:          0  USEFUL:          0  USELESS:          0
cpu0_L1I AVERAGE MISS LATENCY: -nan cycles
cpu0_STLB TOTAL     ACCESS:      34047  HIT:      15571  MISS:      18476
cpu0_STLB LOAD      ACCESS:       4621  HIT:          0  MISS:       4621
cpu0_STLB RFO       ACCESS:      29426  HIT:      15571  MISS:      13855
cpu0_STLB PREFETCH  ACCESS:          0  HIT:          0  MISS:          0
cpu0_STLB WRITEBACK ACCESS:          0  HIT:          0  MISS:          0
cpu0_STLB TRANSLATION ACCESS:          0  HIT:          0  MISS:          0
cpu0_STLB PREFETCH  REQUESTED:          0  ISSUED:          0  USEFUL:          0  USELESS:          0
cpu0_STLB AVERAGE MISS LATENCY: 950.846 cycles
cpu0_L1D TOTAL     ACCESS:    5918968  HIT:    3968396  MISS:    1950572
cpu0_L1D LOAD      ACCESS:    1405639  HIT:    1110090  MISS:     295549
cpu0_L1D RFO       ACCESS:    4495806  HIT:    2840792  MISS:    1655014
cpu0_L1D PREFETCH  ACCESS:          0  HIT:          0  MISS:          0
cpu0_L1D WRITEBACK ACCESS:          0  HIT:          0  MISS:          0
cpu0_L1D TRANSLATION ACCESS:      17523  HIT:      17514  MISS:          9
cpu0_L1D PREFETCH  REQUESTED:          0  ISSUED:          0  USEFUL:          0  USELESS:          0
cpu0_L1D AVERAGE MISS LATENCY: 765.288 cycles
cpu0_L2C TOTAL     ACCESS:    4073854  HIT:    2841054  MISS:    1232800
cpu0_L2C LOAD      ACCESS:     295549  HIT:          2  MISS:     295547
cpu0_L2C RFO       ACCESS:    1655014  HIT:     740299  MISS:     914715
cpu0_L2C PREFETCH  ACCESS:     468241  HIT:     445768  MISS:      22473
cpu0_L2C WRITEBACK ACCESS:    1655041  HIT:    1654985  MISS:         56
cpu0_L2C TRANSLATION ACCESS:          9  HIT:          0  MISS:          9
cpu0_L2C PREFETCH  REQUESTED:     677670  ISSUED:     508925  USEFUL:      19600  USELESS:       2863
cpu0_L2C AVERAGE MISS LATENCY: 1216.86 cycles
LLC TOTAL     ACCESS:    2153190  HIT:     947860  MISS:    1205330
LLC LOAD      ACCESS:     295547  HIT:          1  MISS:     295546
LLC RFO       ACCESS:     914679  HIT:      28098  MISS:     886581
LLC PREFETCH  ACCESS:      28417  HIT:       5266  MISS:      23151
LLC WRITEBACK ACCESS:     914538  HIT:     914495  MISS:         43
LLC TRANSLATION ACCESS:          9  HIT:          0  MISS:          9
LLC PREFETCH  REQUESTED:          0  ISSUED:          0  USEFUL:          0  USELESS:          0
LLC AVERAGE MISS LATENCY: 1230.5 cycles

DRAM Statistics
 CHANNEL 0
 RQ ROW_BUFFER_HIT:      34740  ROW_BUFFER_MISS:    1170547
 DBUS AVG_CONGESTED_CYCLE:    4.00304
 WQ ROW_BUFFER_HIT:      14303  ROW_BUFFER_MISS:     872021  FULL:          0


CPU 0 Branch Prediction Accuracy: 95.9842% MPKI: 0.71772 Average ROB Occupancy at Mispredict: 258.943
Branch type MPKI
BRANCH_DIRECT_JUMP: 0
BRANCH_INDIRECT: 0
BRANCH_CONDITIONAL: 0.71772
BRANCH_DIRECT_CALL: 0
BRANCH_INDIRECT_CALL: 0
BRANCH_RETURN: 0
