*** ChampSim Multicore Out-of-Order Simulator ***

Warmup Instructions: 25000000
Simulation Instructions: 25000000
Number of CPUs: 1
Off-chip DRAM Size: 4 GiB Channels: 1 Width: 64-bit Data Rate: 3200 MT/s

VirtualMemory physical capacity: 8588881920 num_ppages: 2096895
VirtualMemory page size: 4096 log2_page_size: 12

CPU 0 runs /home/harshraj/EE/Courses/CS683/PA2-race-of-the-prefetcher/traces/bc-0.trace.gz
CPU 0 Bimodal branch predictor
Basic BTB sets: 1024 ways: 8 indirect buffer size: 4096 RAS size: 64
cpu0_L2C Stream Prefetcher  2 4
WARNING: The extended signature CACHE::prefetch_line(ip, base_addr, pf_addr, fill_this_level, prefetch_metadata) is deprecated.
WARNING: Use CACHE::prefetch_line(pf_addr, fill_this_level, prefetch_metadata) instead.
Heartbeat CPU 0 instructions: 10000002 cycles: 3203426 heartbeat IPC: 3.12166 cumulative IPC: 3.12166 (Simulation time: 0 hr 0 min 38 sec) 
Heartbeat CPU 0 instructions: 20000000 cycles: 5712250 heartbeat IPC: 3.98593 cumulative IPC: 3.50125 (Simulation time: 0 hr 1 min 5 sec) 

Warmup complete CPU 0 instructions: 25000003 cycles: 6963683 (Simulation time: 0 hr 1 min 18 sec) 

Heartbeat CPU 0 instructions: 30000001 cycles: 43286183 heartbeat IPC: 0.266142 cumulative IPC: 0.137656 (Simulation time: 0 hr 2 min 0 sec) 
Heartbeat CPU 0 instructions: 40000002 cycles: 117865537 heartbeat IPC: 0.134085 cumulative IPC: 0.135255 (Simulation time: 0 hr 3 min 23 sec) 
Heartbeat CPU 0 instructions: 50000002 cycles: 192386519 heartbeat IPC: 0.13419 cumulative IPC: 0.134827 (Simulation time: 0 hr 4 min 38 sec) 
Finished CPU 0 instructions: 25000004 cycles: 185422837 cumulative IPC: 0.134827 (Simulation time: 0 hr 4 min 38 sec) 

ChampSim completed all CPUs

Region of Interest Statistics

CPU 0 cumulative IPC: 0.134827 instructions: 25000004 cycles: 185422837
cpu0_DTLB TOTAL     ACCESS:    5782039  HIT:    5048257  MISS:     733782
cpu0_DTLB LOAD      ACCESS:    4554448  HIT:    4076461  MISS:     477987
cpu0_DTLB RFO       ACCESS:    1227591  HIT:     971796  MISS:     255795
cpu0_DTLB PREFETCH  ACCESS:          0  HIT:          0  MISS:          0
cpu0_DTLB WRITEBACK ACCESS:          0  HIT:          0  MISS:          0
cpu0_DTLB TRANSLATION ACCESS:          0  HIT:          0  MISS:          0
cpu0_DTLB PREFETCH  REQUESTED:          0  ISSUED:          0  USEFUL:          0  USELESS:          0
cpu0_DTLB AVERAGE MISS LATENCY: 13.8854 cycles
cpu0_ITLB TOTAL     ACCESS:    3107161  HIT:    3107161  MISS:          0
cpu0_ITLB LOAD      ACCESS:    3107161  HIT:    3107161  MISS:          0
cpu0_ITLB RFO       ACCESS:          0  HIT:          0  MISS:          0
cpu0_ITLB PREFETCH  ACCESS:          0  HIT:          0  MISS:          0
cpu0_ITLB WRITEBACK ACCESS:          0  HIT:          0  MISS:          0
cpu0_ITLB TRANSLATION ACCESS:          0  HIT:          0  MISS:          0
cpu0_ITLB PREFETCH  REQUESTED:          0  ISSUED:          0  USEFUL:          0  USELESS:          0
cpu0_ITLB AVERAGE MISS LATENCY: -nan cycles
cpu0_L1I TOTAL     ACCESS:         86  HIT:         86  MISS:          0
cpu0_L1I LOAD      ACCESS:         86  HIT:         86  MISS:          0
cpu0_L1I RFO       ACCESS:          0  HIT:          0  MISS:          0
cpu0_L1I PREFETCH  ACCESS:          0  HIT:          0  MISS:          0
cpu0_L1I WRITEBACK ACCESS:          0  HIT:          0  MISS:          0
cpu0_L1I TRANSLATION ACCESS:          0  HIT:          0  MISS:          0
cpu0_L1I PREFETCH  REQUESTED:          0  ISSUED:          0  USEFUL:          0  USELESS:          0
cpu0_L1I AVERAGE MISS LATENCY: -nan cycles
cpu0_STLB TOTAL     ACCESS:     733782  HIT:     397124  MISS:     336658
cpu0_STLB LOAD      ACCESS:     477987  HIT:     310199  MISS:     167788
cpu0_STLB RFO       ACCESS:     255795  HIT:      86925  MISS:     168870
cpu0_STLB PREFETCH  ACCESS:          0  HIT:          0  MISS:          0
cpu0_STLB WRITEBACK ACCESS:          0  HIT:          0  MISS:          0
cpu0_STLB TRANSLATION ACCESS:          0  HIT:          0  MISS:          0
cpu0_STLB PREFETCH  REQUESTED:          0  ISSUED:          0  USEFUL:          0  USELESS:          0
cpu0_STLB AVERAGE MISS LATENCY: 10.4631 cycles
cpu0_L1D TOTAL     ACCESS:    6848375  HIT:    4761675  MISS:    2086700
cpu0_L1D LOAD      ACCESS:    5222199  HIT:    3147925  MISS:    2074274
cpu0_L1D RFO       ACCESS:    1299090  HIT:    1288058  MISS:      11032
cpu0_L1D PREFETCH  ACCESS:          0  HIT:          0  MISS:          0
cpu0_L1D WRITEBACK ACCESS:          0  HIT:          0  MISS:          0
cpu0_L1D TRANSLATION ACCESS:     327086  HIT:     325692  MISS:       1394
cpu0_L1D PREFETCH  REQUESTED:          0  ISSUED:          0  USEFUL:          0  USELESS:          0
cpu0_L1D AVERAGE MISS LATENCY: 167.369 cycles
cpu0_L2C TOTAL     ACCESS:    2973708  HIT:    1054694  MISS:    1919014
cpu0_L2C LOAD      ACCESS:    2074274  HIT:     225984  MISS:    1848290
cpu0_L2C RFO       ACCESS:      11032  HIT:        122  MISS:      10910
cpu0_L2C PREFETCH  ACCESS:     238187  HIT:     178431  MISS:      59756
cpu0_L2C WRITEBACK ACCESS:     648821  HIT:     648808  MISS:         13
cpu0_L2C TRANSLATION ACCESS:       1394  HIT:       1349  MISS:         45
cpu0_L2C PREFETCH  REQUESTED:     268994  ISSUED:     246303  USEFUL:      26114  USELESS:      33779
cpu0_L2C AVERAGE MISS LATENCY: 177.922 cycles
LLC TOTAL     ACCESS:    2553220  HIT:    1267983  MISS:    1285237
LLC LOAD      ACCESS:    1848290  HIT:     621819  MISS:    1226471
LLC RFO       ACCESS:      10910  HIT:        508  MISS:      10402
LLC PREFETCH  ACCESS:      59874  HIT:      11627  MISS:      48247
LLC WRITEBACK ACCESS:     634101  HIT:     634018  MISS:         83
LLC TRANSLATION ACCESS:         45  HIT:         11  MISS:         34
LLC PREFETCH  REQUESTED:          0  ISSUED:          0  USEFUL:          0  USELESS:          0
LLC AVERAGE MISS LATENCY: 234.369 cycles

DRAM Statistics
 CHANNEL 0
 RQ ROW_BUFFER_HIT:      55590  ROW_BUFFER_MISS:    1228935
 DBUS AVG_CONGESTED_CYCLE:    3.95774
 WQ ROW_BUFFER_HIT:       1070  ROW_BUFFER_MISS:     539336  FULL:          0


CPU 0 Branch Prediction Accuracy: 81.1279% MPKI: 35.6282 Average ROB Occupancy at Mispredict: 22.3538
Branch type MPKI
BRANCH_DIRECT_JUMP: 0
BRANCH_INDIRECT: 0
BRANCH_CONDITIONAL: 35.6282
BRANCH_DIRECT_CALL: 0
BRANCH_INDIRECT_CALL: 0
BRANCH_RETURN: 0

