*** ChampSim Multicore Out-of-Order Simulator ***

Warmup Instructions: 25000000
Simulation Instructions: 25000000
Number of CPUs: 1
Off-chip DRAM Size: 4 GiB Channels: 1 Width: 64-bit Data Rate: 3200 MT/s

VirtualMemory physical capacity: 8588881920 num_ppages: 2096895
VirtualMemory page size: 4096 log2_page_size: 12

CPU 0 runs /home/harshraj/EE/Courses/CS683/PA2-race-of-the-prefetcher/traces/603.bwaves_s-1740B.champsimtrace.xz
CPU 0 Bimodal branch predictor
Basic BTB sets: 1024 ways: 8 indirect buffer size: 4096 RAS size: 64
cpu0_L2C Stream Prefetcher  2 64
WARNING: The extended signature CACHE::prefetch_line(ip, base_addr, pf_addr, fill_this_level, prefetch_metadata) is deprecated.
WARNING: Use CACHE::prefetch_line(pf_addr, fill_this_level, prefetch_metadata) instead.
Heartbeat CPU 0 instructions: 10000001 cycles: 3642288 heartbeat IPC: 2.74553 cumulative IPC: 2.74553 (Simulation time: 0 hr 0 min 26 sec) 
Heartbeat CPU 0 instructions: 20000001 cycles: 7284434 heartbeat IPC: 2.74563 cumulative IPC: 2.74558 (Simulation time: 0 hr 1 min 2 sec) 

Warmup complete CPU 0 instructions: 25000001 cycles: 9105488 (Simulation time: 0 hr 1 min 20 sec) 

Heartbeat CPU 0 instructions: 30000003 cycles: 23414829 heartbeat IPC: 0.619948 cumulative IPC: 0.349422 (Simulation time: 0 hr 2 min 23 sec) 
Heartbeat CPU 0 instructions: 40000001 cycles: 52027712 heartbeat IPC: 0.349493 cumulative IPC: 0.349469 (Simulation time: 0 hr 3 min 59 sec) 
Heartbeat CPU 0 instructions: 50000001 cycles: 80640816 heartbeat IPC: 0.34949 cumulative IPC: 0.349478 (Simulation time: 0 hr 5 min 27 sec) 
Finished CPU 0 instructions: 25000000 cycles: 71535328 cumulative IPC: 0.349478 (Simulation time: 0 hr 5 min 27 sec) 

ChampSim completed all CPUs

Region of Interest Statistics

CPU 0 cumulative IPC: 0.349478 instructions: 25000000 cycles: 71535328
cpu0_DTLB TOTAL     ACCESS:    7858437  HIT:    7829233  MISS:      29204
cpu0_DTLB LOAD      ACCESS:    7302961  HIT:    7278623  MISS:      24338
cpu0_DTLB RFO       ACCESS:     555476  HIT:     550610  MISS:       4866
cpu0_DTLB PREFETCH  ACCESS:          0  HIT:          0  MISS:          0
cpu0_DTLB WRITEBACK ACCESS:          0  HIT:          0  MISS:          0
cpu0_DTLB TRANSLATION ACCESS:          0  HIT:          0  MISS:          0
cpu0_DTLB PREFETCH  REQUESTED:          0  ISSUED:          0  USEFUL:          0  USELESS:          0
cpu0_DTLB AVERAGE MISS LATENCY: 73.7055 cycles
cpu0_ITLB TOTAL     ACCESS:    2203889  HIT:    2203889  MISS:          0
cpu0_ITLB LOAD      ACCESS:    2203889  HIT:    2203889  MISS:          0
cpu0_ITLB RFO       ACCESS:          0  HIT:          0  MISS:          0
cpu0_ITLB PREFETCH  ACCESS:          0  HIT:          0  MISS:          0
cpu0_ITLB WRITEBACK ACCESS:          0  HIT:          0  MISS:          0
cpu0_ITLB TRANSLATION ACCESS:          0  HIT:          0  MISS:          0
cpu0_ITLB PREFETCH  REQUESTED:          0  ISSUED:          0  USEFUL:          0  USELESS:          0
cpu0_ITLB AVERAGE MISS LATENCY: -nan cycles
cpu0_STLB TOTAL     ACCESS:      29204  HIT:      21780  MISS:       7424
cpu0_STLB LOAD      ACCESS:      24338  HIT:      17104  MISS:       7234
cpu0_STLB RFO       ACCESS:       4866  HIT:       4676  MISS:        190
cpu0_STLB PREFETCH  ACCESS:          0  HIT:          0  MISS:          0
cpu0_STLB WRITEBACK ACCESS:          0  HIT:          0  MISS:          0
cpu0_STLB TRANSLATION ACCESS:          0  HIT:          0  MISS:          0
cpu0_STLB PREFETCH  REQUESTED:          0  ISSUED:          0  USEFUL:          0  USELESS:          0
cpu0_STLB AVERAGE MISS LATENCY: 253.746 cycles
cpu0_L1D TOTAL     ACCESS:    7902370  HIT:    7402118  MISS:     500252
cpu0_L1D LOAD      ACCESS:    6505874  HIT:    6018247  MISS:     487627
cpu0_L1D RFO       ACCESS:    1389072  HIT:    1376891  MISS:      12181
cpu0_L1D PREFETCH  ACCESS:          0  HIT:          0  MISS:          0
cpu0_L1D WRITEBACK ACCESS:          0  HIT:          0  MISS:          0
cpu0_L1D TRANSLATION ACCESS:       7424  HIT:       6980  MISS:        444
cpu0_L1D PREFETCH  REQUESTED:          0  ISSUED:          0  USEFUL:          0  USELESS:          0
cpu0_L1D AVERAGE MISS LATENCY: 1161.06 cycles
cpu0_L2C TOTAL     ACCESS:    1164961  HIT:     668368  MISS:     496593
cpu0_L2C LOAD      ACCESS:     487627  HIT:      24512  MISS:     463115
cpu0_L2C RFO       ACCESS:      12181  HIT:          0  MISS:      12181
cpu0_L2C PREFETCH  ACCESS:     652342  HIT:     631065  MISS:      21277
cpu0_L2C WRITEBACK ACCESS:      12367  HIT:      12367  MISS:          0
cpu0_L2C TRANSLATION ACCESS:        444  HIT:        424  MISS:         20
cpu0_L2C PREFETCH  REQUESTED:     708651  ISSUED:     668759  USEFUL:      21274  USELESS:          6
cpu0_L2C AVERAGE MISS LATENCY: 1200.98 cycles
LLC TOTAL     ACCESS:     517400  HIT:      21040  MISS:     496360
LLC LOAD      ACCESS:     463115  HIT:        227  MISS:     462888
LLC RFO       ACCESS:      12181  HIT:          0  MISS:      12181
LLC PREFETCH  ACCESS:      29917  HIT:       8645  MISS:      21272
LLC WRITEBACK ACCESS:      12167  HIT:      12164  MISS:          3
LLC TRANSLATION ACCESS:         20  HIT:          4  MISS:         16
LLC PREFETCH  REQUESTED:          0  ISSUED:          0  USEFUL:          0  USELESS:          0
LLC AVERAGE MISS LATENCY: 1205.03 cycles

DRAM Statistics
 CHANNEL 0
 RQ ROW_BUFFER_HIT:         20  ROW_BUFFER_MISS:     496337
 DBUS AVG_CONGESTED_CYCLE:    3.99952
 WQ ROW_BUFFER_HIT:       2779  ROW_BUFFER_MISS:       9545  FULL:          0


CPU 0 Branch Prediction Accuracy: 62.4635% MPKI: 9.3696 Average ROB Occupancy at Mispredict: 291.172
Branch type MPKI
BRANCH_DIRECT_JUMP: 0
BRANCH_INDIRECT: 0
BRANCH_CONDITIONAL: 9.3696
BRANCH_DIRECT_CALL: 0
BRANCH_INDIRECT_CALL: 0
BRANCH_RETURN: 0
