*** ChampSim Multicore Out-of-Order Simulator ***

Warmup Instructions: 25000000
Simulation Instructions: 25000000
Number of CPUs: 1
Off-chip DRAM Size: 4 GiB Channels: 1 Width: 64-bit Data Rate: 3200 MT/s

VirtualMemory physical capacity: 8588881920 num_ppages: 2096895
VirtualMemory page size: 4096 log2_page_size: 12

CPU 0 runs /home/harshraj/EE/Courses/CS683/PA2-race-of-the-prefetcher/traces/619.lbm_s-2677B.champsimtrace.xz
CPU 0 Bimodal branch predictor
Basic BTB sets: 1024 ways: 8 indirect buffer size: 4096 RAS size: 64
cpu0_L2C Stream Prefetcher  3 64
WARNING: The extended signature CACHE::prefetch_line(ip, base_addr, pf_addr, fill_this_level, prefetch_metadata) is deprecated.
WARNING: Use CACHE::prefetch_line(pf_addr, fill_this_level, prefetch_metadata) instead.
Heartbeat CPU 0 instructions: 10000001 cycles: 2594169 heartbeat IPC: 3.8548 cumulative IPC: 3.8548 (Simulation time: 0 hr 0 min 28 sec) 
Heartbeat CPU 0 instructions: 20000003 cycles: 5183708 heartbeat IPC: 3.86169 cumulative IPC: 3.85824 (Simulation time: 0 hr 1 min 1 sec) 

Warmup complete CPU 0 instructions: 25000001 cycles: 6478421 (Simulation time: 0 hr 1 min 18 sec) 

Heartbeat CPU 0 instructions: 30000002 cycles: 30030496 heartbeat IPC: 0.402466 cumulative IPC: 0.212296 (Simulation time: 0 hr 2 min 59 sec) 
Heartbeat CPU 0 instructions: 40000004 cycles: 77073921 heartbeat IPC: 0.21257 cumulative IPC: 0.212478 (Simulation time: 0 hr 5 min 42 sec) 
Heartbeat CPU 0 instructions: 50000001 cycles: 125173700 heartbeat IPC: 0.207901 cumulative IPC: 0.210623 (Simulation time: 0 hr 7 min 47 sec) 
Finished CPU 0 instructions: 25000000 cycles: 118695279 cumulative IPC: 0.210623 (Simulation time: 0 hr 7 min 47 sec) 

ChampSim completed all CPUs

Region of Interest Statistics

CPU 0 cumulative IPC: 0.210623 instructions: 25000000 cycles: 118695279
cpu0_DTLB TOTAL     ACCESS:    4451919  HIT:    4417872  MISS:      34047
cpu0_DTLB LOAD      ACCESS:    1981666  HIT:    1977045  MISS:       4621
cpu0_DTLB RFO       ACCESS:    2470253  HIT:    2440827  MISS:      29426
cpu0_DTLB PREFETCH  ACCESS:          0  HIT:          0  MISS:          0
cpu0_DTLB WRITEBACK ACCESS:          0  HIT:          0  MISS:          0
cpu0_DTLB TRANSLATION ACCESS:          0  HIT:          0  MISS:          0
cpu0_DTLB PREFETCH  REQUESTED:          0  ISSUED:          0  USEFUL:          0  USELESS:          0
cpu0_DTLB AVERAGE MISS LATENCY: 511.27 cycles
cpu0_ITLB TOTAL     ACCESS:     472931  HIT:     472931  MISS:          0
cpu0_ITLB LOAD      ACCESS:     472931  HIT:     472931  MISS:          0
cpu0_ITLB RFO       ACCESS:          0  HIT:          0  MISS:          0
cpu0_ITLB PREFETCH  ACCESS:          0  HIT:          0  MISS:          0
cpu0_ITLB WRITEBACK ACCESS:          0  HIT:          0  MISS:          0
cpu0_ITLB TRANSLATION ACCESS:          0  HIT:          0  MISS:          0
cpu0_ITLB PREFETCH  REQUESTED:          0  ISSUED:          0  USEFUL:          0  USELESS:          0
cpu0_ITLB AVERAGE MISS LATENCY: -nan cycles
cpu0_L1I TOTAL     ACCESS:     551215  HIT:     551215  MISS:          0
cpu0_L1I LOAD      ACCESS:     551215  HIT:     551215  MISS:          0
cpu0_L1I RFO       ACCESS:          0  HIT:          0  MISS:          0
cpu0_L1I PREFETCH  ACCESS:          0  HIT:          0  MISS:          0
cpu0_L1I WRITEBACK ACCESS:          0  HIT:          0  MISS:          0
cpu0_L1I TRANSLATION ACCESS:          0  HIT:          0  MISS:          0
cpu0_L1I PREFETCH  REQUESTED:          0  ISSUED:          0  USEFUL:          0  USELESS:          0
cpu0_L1I AVERAGE MISS LATENCY: -nan cycles
cpu0_STLB TOTAL     ACCESS:      34047  HIT:      15571  MISS:      18476
cpu0_STLB LOAD      ACCESS:       4621  HIT:          0  MISS:       4621
cpu0_STLB RFO       ACCESS:      29426  HIT:      15571  MISS:      13855
cpu0_STLB PREFETCH  ACCESS:          0  HIT:          0  MISS:          0
cpu0_STLB WRITEBACK ACCESS:          0  HIT:          0  MISS:          0
cpu0_STLB TRANSLATION ACCESS:          0  HIT:          0  MISS:          0
cpu0_STLB PREFETCH  REQUESTED:          0  ISSUED:          0  USEFUL:          0  USELESS:          0
cpu0_STLB AVERAGE MISS LATENCY: 925.429 cycles
cpu0_L1D TOTAL     ACCESS:    5916543  HIT:    3965971  MISS:    1950572
cpu0_L1D LOAD      ACCESS:    1404803  HIT:    1109253  MISS:     295550
cpu0_L1D RFO       ACCESS:    4494215  HIT:    2839202  MISS:    1655013
cpu0_L1D PREFETCH  ACCESS:          0  HIT:          0  MISS:          0
cpu0_L1D WRITEBACK ACCESS:          0  HIT:          0  MISS:          0
cpu0_L1D TRANSLATION ACCESS:      17525  HIT:      17516  MISS:          9
cpu0_L1D PREFETCH  REQUESTED:          0  ISSUED:          0  USEFUL:          0  USELESS:          0
cpu0_L1D AVERAGE MISS LATENCY: 762.301 cycles
cpu0_L2C TOTAL     ACCESS:    3762219  HIT:    2537878  MISS:    1224341
cpu0_L2C LOAD      ACCESS:     295550  HIT:          2  MISS:     295548
cpu0_L2C RFO       ACCESS:    1655013  HIT:     740309  MISS:     914704
cpu0_L2C PREFETCH  ACCESS:     156608  HIT:     142583  MISS:      14025
cpu0_L2C WRITEBACK ACCESS:    1655039  HIT:    1654984  MISS:         55
cpu0_L2C TRANSLATION ACCESS:          9  HIT:          0  MISS:          9
cpu0_L2C PREFETCH  REQUESTED:     170037  ISSUED:     169355  USEFUL:      13432  USELESS:        590
cpu0_L2C AVERAGE MISS LATENCY: 1211.98 cycles
LLC TOTAL     ACCESS:    2142212  HIT:     945498  MISS:    1196714
LLC LOAD      ACCESS:     295548  HIT:          1  MISS:     295547
LLC RFO       ACCESS:     914654  HIT:      28074  MISS:     886580
LLC PREFETCH  ACCESS:      17438  HIT:       2903  MISS:      14535
LLC WRITEBACK ACCESS:     914563  HIT:     914520  MISS:         43
LLC TRANSLATION ACCESS:          9  HIT:          0  MISS:          9
LLC PREFETCH  REQUESTED:          0  ISSUED:          0  USEFUL:          0  USELESS:          0
LLC AVERAGE MISS LATENCY: 1222.63 cycles

DRAM Statistics
 CHANNEL 0
 RQ ROW_BUFFER_HIT:      35366  ROW_BUFFER_MISS:    1161305
 DBUS AVG_CONGESTED_CYCLE:    4.00295
 WQ ROW_BUFFER_HIT:      15329  ROW_BUFFER_MISS:     870899  FULL:          0


CPU 0 Branch Prediction Accuracy: 95.9842% MPKI: 0.71772 Average ROB Occupancy at Mispredict: 258.862
Branch type MPKI
BRANCH_DIRECT_JUMP: 0
BRANCH_INDIRECT: 0
BRANCH_CONDITIONAL: 0.71772
BRANCH_DIRECT_CALL: 0
BRANCH_INDIRECT_CALL: 0
BRANCH_RETURN: 0

