./bin/champsim --warmup_instructions=25000000 --simulation_instructions=25000000 ./traces/602.gcc_s-1850B.champsimtrace.xz 

*** ChampSim Multicore Out-of-Order Simulator ***

Warmup Instructions: 25000000
Simulation Instructions: 25000000
Number of CPUs: 1
Off-chip DRAM Size: 4 GiB Channels: 1 Width: 64-bit Data Rate: 3200 MT/s

VirtualMemory physical capacity: 8588881920 num_ppages: 2096895
VirtualMemory page size: 4096 log2_page_size: 12

CPU 0 runs ./traces/602.gcc_s-1850B.champsimtrace.xz
CPU 0 Bimodal branch predictor
Basic BTB sets: 1024 ways: 8 indirect buffer size: 4096 RAS size: 64
cpu0_L2C Stream Plus Stride Prefetcher 3 64
WARNING: The extended signature CACHE::prefetch_line(ip, base_addr, pf_addr, fill_this_level, prefetch_metadata) is deprecated.
WARNING: Use CACHE::prefetch_line(pf_addr, fill_this_level, prefetch_metadata) instead.
Heartbeat CPU 0 instructions: 10000001 cycles: 2500075 heartbeat IPC: 3.99988 cumulative IPC: 3.99988 (Simulation time: 0 hr 0 min 27 sec) 
Heartbeat CPU 0 instructions: 20000001 cycles: 5000075 heartbeat IPC: 4 cumulative IPC: 3.99994 (Simulation time: 0 hr 1 min 5 sec) 

Warmup complete CPU 0 instructions: 25000001 cycles: 6250075 (Simulation time: 0 hr 1 min 26 sec) 

Heartbeat CPU 0 instructions: 30000000 cycles: 21998014 heartbeat IPC: 0.588307 cumulative IPC: 0.317502 (Simulation time: 0 hr 1 min 59 sec) 
Heartbeat CPU 0 instructions: 40000002 cycles: 53544852 heartbeat IPC: 0.316989 cumulative IPC: 0.31716 (Simulation time: 0 hr 3 min 14 sec) 
Heartbeat CPU 0 instructions: 50000003 cycles: 85121105 heartbeat IPC: 0.316694 cumulative IPC: 0.316973 (Simulation time: 0 hr 4 min 19 sec) 
Finished CPU 0 instructions: 25000002 cycles: 78871030 cumulative IPC: 0.316973 (Simulation time: 0 hr 4 min 19 sec) 

ChampSim completed all CPUs

Region of Interest Statistics

CPU 0 cumulative IPC: 0.316973 instructions: 25000002 cycles: 78871030
cpu0_DTLB TOTAL     ACCESS:    4747949  HIT:    4739823  MISS:       8126
cpu0_DTLB LOAD      ACCESS:    3938359  HIT:    3930236  MISS:       8123
cpu0_DTLB RFO       ACCESS:     809590  HIT:     809587  MISS:          3
cpu0_DTLB PREFETCH  ACCESS:          0  HIT:          0  MISS:          0
cpu0_DTLB WRITEBACK ACCESS:          0  HIT:          0  MISS:          0
cpu0_DTLB TRANSLATION ACCESS:          0  HIT:          0  MISS:          0
cpu0_DTLB PREFETCH  REQUESTED:          0  ISSUED:          0  USEFUL:          0  USELESS:          0
cpu0_DTLB AVERAGE MISS LATENCY: 208.162 cycles
cpu0_ITLB TOTAL     ACCESS:    2857034  HIT:    2857034  MISS:          0
cpu0_ITLB LOAD      ACCESS:    2857034  HIT:    2857034  MISS:          0
cpu0_ITLB RFO       ACCESS:          0  HIT:          0  MISS:          0
cpu0_ITLB PREFETCH  ACCESS:          0  HIT:          0  MISS:          0
cpu0_ITLB WRITEBACK ACCESS:          0  HIT:          0  MISS:          0
cpu0_ITLB TRANSLATION ACCESS:          0  HIT:          0  MISS:          0
cpu0_ITLB PREFETCH  REQUESTED:          0  ISSUED:          0  USEFUL:          0  USELESS:          0
cpu0_ITLB AVERAGE MISS LATENCY: -nan cycles
cpu0_STLB TOTAL     ACCESS:       8126  HIT:        392  MISS:       7734
cpu0_STLB LOAD      ACCESS:       8123  HIT:        392  MISS:       7731
cpu0_STLB RFO       ACCESS:          3  HIT:          0  MISS:          3
cpu0_STLB PREFETCH  ACCESS:          0  HIT:          0  MISS:          0
cpu0_STLB WRITEBACK ACCESS:          0  HIT:          0  MISS:          0
cpu0_STLB TRANSLATION ACCESS:          0  HIT:          0  MISS:          0
cpu0_STLB PREFETCH  REQUESTED:          0  ISSUED:          0  USEFUL:          0  USELESS:          0
cpu0_STLB AVERAGE MISS LATENCY: 209.257 cycles
cpu0_L1D TOTAL     ACCESS:    5544323  HIT:    4941625  MISS:     602698
cpu0_L1D LOAD      ACCESS:    3378968  HIT:    2777187  MISS:     601781
cpu0_L1D RFO       ACCESS:    2157621  HIT:    2157449  MISS:        172
cpu0_L1D PREFETCH  ACCESS:          0  HIT:          0  MISS:          0
cpu0_L1D WRITEBACK ACCESS:          0  HIT:          0  MISS:          0
cpu0_L1D TRANSLATION ACCESS:       7734  HIT:       6989  MISS:        745
cpu0_L1D PREFETCH  REQUESTED:          0  ISSUED:          0  USEFUL:          0  USELESS:          0
cpu0_L1D AVERAGE MISS LATENCY: 87.5254 cycles
cpu0_L2C TOTAL     ACCESS:     995441  HIT:     535837  MISS:     459604
cpu0_L2C LOAD      ACCESS:     601781  HIT:     156983  MISS:     444798
cpu0_L2C RFO       ACCESS:        172  HIT:          0  MISS:        172
cpu0_L2C PREFETCH  ACCESS:     391159  HIT:     376676  MISS:      14483
cpu0_L2C WRITEBACK ACCESS:       1584  HIT:       1584  MISS:          0
cpu0_L2C TRANSLATION ACCESS:        745  HIT:        594  MISS:        151
cpu0_L2C PREFETCH  REQUESTED:     397594  ISSUED:     396707  USEFUL:      14333  USELESS:        149
cpu0_L2C AVERAGE MISS LATENCY: 106.478 cycles
LLC TOTAL     ACCESS:     460226  HIT:       1441  MISS:     458785
LLC LOAD      ACCESS:     444798  HIT:        552  MISS:     444246
LLC RFO       ACCESS:        172  HIT:          0  MISS:        172
LLC PREFETCH  ACCESS:      14483  HIT:        189  MISS:      14294
LLC WRITEBACK ACCESS:        622  HIT:        622  MISS:          0
LLC TRANSLATION ACCESS:        151  HIT:         78  MISS:         73
LLC PREFETCH  REQUESTED:          0  ISSUED:          0  USEFUL:          0  USELESS:          0
LLC AVERAGE MISS LATENCY: 85.6302 cycles

DRAM Statistics
 CHANNEL 0
 RQ ROW_BUFFER_HIT:     353760  ROW_BUFFER_MISS:     105025
 DBUS AVG_CONGESTED_CYCLE:    3.20487
 WQ ROW_BUFFER_HIT:        348  ROW_BUFFER_MISS:        270  FULL:          0


CPU 0 Branch Prediction Accuracy: 92.3646% MPKI: 19.576 Average ROB Occupancy at Mispredict: 33.4927
Branch type MPKI
BRANCH_DIRECT_JUMP: 0
BRANCH_INDIRECT: 0
BRANCH_CONDITIONAL: 19.576
BRANCH_DIRECT_CALL: 0
BRANCH_INDIRECT_CALL: 0
BRANCH_RETURN: 0