./bin/champsim --warmup_instructions=25000000 --simulation_instructions=25000000 ./traces/602.gcc_s-1850B.champsimtrace.xz 

*** ChampSim Multicore Out-of-Order Simulator ***

Warmup Instructions: 25000000
Simulation Instructions: 25000000
Number of CPUs: 1
Off-chip DRAM Size: 4 GiB Channels: 1 Width: 64-bit Data Rate: 3200 MT/s

VirtualMemory physical capacity: 8588881920 num_ppages: 2096895
VirtualMemory page size: 4096 log2_page_size: 12

CPU 0 runs ./traces/602.gcc_s-1850B.champsimtrace.xz
CPU 0 Bimodal branch predictor
Basic BTB sets: 1024 ways: 8 indirect buffer size: 4096 RAS size: 64
cpu0_L2C Stream Plus Stride Prefetcher 2 16
WARNING: The extended signature CACHE::prefetch_line(ip, base_addr, pf_addr, fill_this_level, prefetch_metadata) is deprecated.
WARNING: Use CACHE::prefetch_line(pf_addr, fill_this_level, prefetch_metadata) instead.
Heartbeat CPU 0 instructions: 10000001 cycles: 2500075 heartbeat IPC: 3.99988 cumulative IPC: 3.99988 (Simulation time: 0 hr 0 min 22 sec) 
Heartbeat CPU 0 instructions: 20000001 cycles: 5000075 heartbeat IPC: 4 cumulative IPC: 3.99994 (Simulation time: 0 hr 0 min 53 sec) 

Warmup complete CPU 0 instructions: 25000001 cycles: 6250075 (Simulation time: 0 hr 1 min 12 sec) 

Heartbeat CPU 0 instructions: 30000000 cycles: 22137584 heartbeat IPC: 0.583515 cumulative IPC: 0.314713 (Simulation time: 0 hr 1 min 47 sec) 
Heartbeat CPU 0 instructions: 40000002 cycles: 53960512 heartbeat IPC: 0.314239 cumulative IPC: 0.314397 (Simulation time: 0 hr 3 min 10 sec) 
Heartbeat CPU 0 instructions: 50000003 cycles: 85810805 heartbeat IPC: 0.313969 cumulative IPC: 0.314225 (Simulation time: 0 hr 4 min 41 sec) 
Finished CPU 0 instructions: 25000002 cycles: 79560730 cumulative IPC: 0.314225 (Simulation time: 0 hr 4 min 41 sec) 

ChampSim completed all CPUs

Region of Interest Statistics

CPU 0 cumulative IPC: 0.314225 instructions: 25000002 cycles: 79560730
cpu0_DTLB TOTAL     ACCESS:    4747950  HIT:    4739824  MISS:       8126
cpu0_DTLB LOAD      ACCESS:    3938360  HIT:    3930237  MISS:       8123
cpu0_DTLB RFO       ACCESS:     809590  HIT:     809587  MISS:          3
cpu0_DTLB PREFETCH  ACCESS:          0  HIT:          0  MISS:          0
cpu0_DTLB WRITEBACK ACCESS:          0  HIT:          0  MISS:          0
cpu0_DTLB TRANSLATION ACCESS:          0  HIT:          0  MISS:          0
cpu0_DTLB PREFETCH  REQUESTED:          0  ISSUED:          0  USEFUL:          0  USELESS:          0
cpu0_DTLB AVERAGE MISS LATENCY: 208.184 cycles
cpu0_ITLB TOTAL     ACCESS:    2857034  HIT:    2857034  MISS:          0
cpu0_ITLB LOAD      ACCESS:    2857034  HIT:    2857034  MISS:          0
cpu0_ITLB RFO       ACCESS:          0  HIT:          0  MISS:          0
cpu0_ITLB PREFETCH  ACCESS:          0  HIT:          0  MISS:          0
cpu0_ITLB WRITEBACK ACCESS:          0  HIT:          0  MISS:          0
cpu0_ITLB TRANSLATION ACCESS:          0  HIT:          0  MISS:          0
cpu0_ITLB PREFETCH  REQUESTED:          0  ISSUED:          0  USEFUL:          0  USELESS:          0
cpu0_ITLB AVERAGE MISS LATENCY: -nan cycles
cpu0_STLB TOTAL     ACCESS:       8126  HIT:        392  MISS:       7734
cpu0_STLB LOAD      ACCESS:       8123  HIT:        392  MISS:       7731
cpu0_STLB RFO       ACCESS:          3  HIT:          0  MISS:          3
cpu0_STLB PREFETCH  ACCESS:          0  HIT:          0  MISS:          0
cpu0_STLB WRITEBACK ACCESS:          0  HIT:          0  MISS:          0
cpu0_STLB TRANSLATION ACCESS:          0  HIT:          0  MISS:          0
cpu0_STLB PREFETCH  REQUESTED:          0  ISSUED:          0  USEFUL:          0  USELESS:          0
cpu0_STLB AVERAGE MISS LATENCY: 209.28 cycles
cpu0_L1D TOTAL     ACCESS:    5544311  HIT:    4941613  MISS:     602698
cpu0_L1D LOAD      ACCESS:    3378956  HIT:    2777175  MISS:     601781
cpu0_L1D RFO       ACCESS:    2157621  HIT:    2157449  MISS:        172
cpu0_L1D PREFETCH  ACCESS:          0  HIT:          0  MISS:          0
cpu0_L1D WRITEBACK ACCESS:          0  HIT:          0  MISS:          0
cpu0_L1D TRANSLATION ACCESS:       7734  HIT:       6989  MISS:        745
cpu0_L1D PREFETCH  REQUESTED:          0  ISSUED:          0  USEFUL:          0  USELESS:          0
cpu0_L1D AVERAGE MISS LATENCY: 88.6736 cycles
cpu0_L2C TOTAL     ACCESS:     975515  HIT:     508323  MISS:     467192
cpu0_L2C LOAD      ACCESS:     601781  HIT:     156969  MISS:     444812
cpu0_L2C RFO       ACCESS:        172  HIT:          0  MISS:        172
cpu0_L2C PREFETCH  ACCESS:     371233  HIT:     349177  MISS:      22056
cpu0_L2C WRITEBACK ACCESS:       1584  HIT:       1584  MISS:          0
cpu0_L2C TRANSLATION ACCESS:        745  HIT:        593  MISS:        152
cpu0_L2C PREFETCH  REQUESTED:     377128  ISSUED:     376381  USEFUL:      19400  USELESS:       2650
cpu0_L2C AVERAGE MISS LATENCY: 109.296 cycles
LLC TOTAL     ACCESS:     467814  HIT:       1480  MISS:     466334
LLC LOAD      ACCESS:     444812  HIT:        562  MISS:     444250
LLC RFO       ACCESS:        172  HIT:          0  MISS:        172
LLC PREFETCH  ACCESS:      22056  HIT:        218  MISS:      21838
LLC WRITEBACK ACCESS:        622  HIT:        622  MISS:          0
LLC TRANSLATION ACCESS:        152  HIT:         78  MISS:         74
LLC PREFETCH  REQUESTED:          0  ISSUED:          0  USEFUL:          0  USELESS:          0
LLC AVERAGE MISS LATENCY: 88.4585 cycles

DRAM Statistics
 CHANNEL 0
 RQ ROW_BUFFER_HIT:     347118  ROW_BUFFER_MISS:     119216
 DBUS AVG_CONGESTED_CYCLE:    3.03596
 WQ ROW_BUFFER_HIT:        372  ROW_BUFFER_MISS:        242  FULL:          0


CPU 0 Branch Prediction Accuracy: 92.3646% MPKI: 19.576 Average ROB Occupancy at Mispredict: 33.4927
Branch type MPKI
BRANCH_DIRECT_JUMP: 0
BRANCH_INDIRECT: 0
BRANCH_CONDITIONAL: 19.576
BRANCH_DIRECT_CALL: 0
BRANCH_INDIRECT_CALL: 0
BRANCH_RETURN: 0
