./bin/champsim --warmup_instructions=25000000 --simulation_instructions=25000000 ./traces/602.gcc_s-1850B.champsimtrace.xz 

*** ChampSim Multicore Out-of-Order Simulator ***

Warmup Instructions: 25000000
Simulation Instructions: 25000000
Number of CPUs: 1
Off-chip DRAM Size: 4 GiB Channels: 1 Width: 64-bit Data Rate: 3200 MT/s

VirtualMemory physical capacity: 8588881920 num_ppages: 2096895
VirtualMemory page size: 4096 log2_page_size: 12

CPU 0 runs ./traces/602.gcc_s-1850B.champsimtrace.xz
CPU 0 Bimodal branch predictor
Basic BTB sets: 1024 ways: 8 indirect buffer size: 4096 RAS size: 64
cpu0_L2C Stream Plus Stride Prefetcher 4 16
WARNING: The extended signature CACHE::prefetch_line(ip, base_addr, pf_addr, fill_this_level, prefetch_metadata) is deprecated.
WARNING: Use CACHE::prefetch_line(pf_addr, fill_this_level, prefetch_metadata) instead.
Heartbeat CPU 0 instructions: 10000001 cycles: 2500075 heartbeat IPC: 3.99988 cumulative IPC: 3.99988 (Simulation time: 0 hr 0 min 26 sec) 
Heartbeat CPU 0 instructions: 20000001 cycles: 5000075 heartbeat IPC: 4 cumulative IPC: 3.99994 (Simulation time: 0 hr 1 min 0 sec) 

Warmup complete CPU 0 instructions: 25000001 cycles: 6250075 (Simulation time: 0 hr 1 min 18 sec) 

Heartbeat CPU 0 instructions: 30000000 cycles: 22237872 heartbeat IPC: 0.580121 cumulative IPC: 0.312738 (Simulation time: 0 hr 1 min 51 sec) 
Heartbeat CPU 0 instructions: 40000002 cycles: 54258472 heartbeat IPC: 0.312299 cumulative IPC: 0.312445 (Simulation time: 0 hr 2 min 50 sec) 
Heartbeat CPU 0 instructions: 50000003 cycles: 86316195 heartbeat IPC: 0.311937 cumulative IPC: 0.312242 (Simulation time: 0 hr 4 min 4 sec) 
Finished CPU 0 instructions: 25000002 cycles: 80066120 cumulative IPC: 0.312242 (Simulation time: 0 hr 4 min 4 sec) 

ChampSim completed all CPUs

Region of Interest Statistics

CPU 0 cumulative IPC: 0.312242 instructions: 25000002 cycles: 80066120
cpu0_DTLB TOTAL     ACCESS:    4747948  HIT:    4739822  MISS:       8126
cpu0_DTLB LOAD      ACCESS:    3938358  HIT:    3930235  MISS:       8123
cpu0_DTLB RFO       ACCESS:     809590  HIT:     809587  MISS:          3
cpu0_DTLB PREFETCH  ACCESS:          0  HIT:          0  MISS:          0
cpu0_DTLB WRITEBACK ACCESS:          0  HIT:          0  MISS:          0
cpu0_DTLB TRANSLATION ACCESS:          0  HIT:          0  MISS:          0
cpu0_DTLB PREFETCH  REQUESTED:          0  ISSUED:          0  USEFUL:          0  USELESS:          0
cpu0_DTLB AVERAGE MISS LATENCY: 208.172 cycles
cpu0_ITLB TOTAL     ACCESS:    2857034  HIT:    2857034  MISS:          0
cpu0_ITLB LOAD      ACCESS:    2857034  HIT:    2857034  MISS:          0
cpu0_ITLB RFO       ACCESS:          0  HIT:          0  MISS:          0
cpu0_ITLB PREFETCH  ACCESS:          0  HIT:          0  MISS:          0
cpu0_ITLB WRITEBACK ACCESS:          0  HIT:          0  MISS:          0
cpu0_ITLB TRANSLATION ACCESS:          0  HIT:          0  MISS:          0
cpu0_ITLB PREFETCH  REQUESTED:          0  ISSUED:          0  USEFUL:          0  USELESS:          0
cpu0_ITLB AVERAGE MISS LATENCY: -nan cycles
cpu0_STLB TOTAL     ACCESS:       8126  HIT:        392  MISS:       7734
cpu0_STLB LOAD      ACCESS:       8123  HIT:        392  MISS:       7731
cpu0_STLB RFO       ACCESS:          3  HIT:          0  MISS:          3
cpu0_STLB PREFETCH  ACCESS:          0  HIT:          0  MISS:          0
cpu0_STLB WRITEBACK ACCESS:          0  HIT:          0  MISS:          0
cpu0_STLB TRANSLATION ACCESS:          0  HIT:          0  MISS:          0
cpu0_STLB PREFETCH  REQUESTED:          0  ISSUED:          0  USEFUL:          0  USELESS:          0
cpu0_STLB AVERAGE MISS LATENCY: 209.267 cycles
cpu0_L1D TOTAL     ACCESS:    5544297  HIT:    4941599  MISS:     602698
cpu0_L1D LOAD      ACCESS:    3378942  HIT:    2777161  MISS:     601781
cpu0_L1D RFO       ACCESS:    2157621  HIT:    2157449  MISS:        172
cpu0_L1D PREFETCH  ACCESS:          0  HIT:          0  MISS:          0
cpu0_L1D WRITEBACK ACCESS:          0  HIT:          0  MISS:          0
cpu0_L1D TRANSLATION ACCESS:       7734  HIT:       6989  MISS:        745
cpu0_L1D PREFETCH  REQUESTED:          0  ISSUED:          0  USEFUL:          0  USELESS:          0
cpu0_L1D AVERAGE MISS LATENCY: 89.5174 cycles
cpu0_L2C TOTAL     ACCESS:     848355  HIT:     376334  MISS:     472021
cpu0_L2C LOAD      ACCESS:     601781  HIT:     156950  MISS:     444831
cpu0_L2C RFO       ACCESS:        172  HIT:          0  MISS:        172
cpu0_L2C PREFETCH  ACCESS:     244073  HIT:     217210  MISS:      26863
cpu0_L2C WRITEBACK ACCESS:       1584  HIT:       1584  MISS:          0
cpu0_L2C TRANSLATION ACCESS:        745  HIT:        590  MISS:        155
cpu0_L2C PREFETCH  REQUESTED:     246775  ISSUED:     245882  USEFUL:      23570  USELESS:       3304
cpu0_L2C AVERAGE MISS LATENCY: 111.212 cycles
LLC TOTAL     ACCESS:     472643  HIT:       1491  MISS:     471152
LLC LOAD      ACCESS:     444831  HIT:        583  MISS:     444248
LLC RFO       ACCESS:        172  HIT:          0  MISS:        172
LLC PREFETCH  ACCESS:      26863  HIT:        204  MISS:      26659
LLC WRITEBACK ACCESS:        622  HIT:        622  MISS:          0
LLC TRANSLATION ACCESS:        155  HIT:         82  MISS:         73
LLC PREFETCH  REQUESTED:          0  ISSUED:          0  USEFUL:          0  USELESS:          0
LLC AVERAGE MISS LATENCY: 90.3788 cycles

DRAM Statistics
 CHANNEL 0
 RQ ROW_BUFFER_HIT:     342268  ROW_BUFFER_MISS:     128884
 DBUS AVG_CONGESTED_CYCLE:    2.93472
 WQ ROW_BUFFER_HIT:        348  ROW_BUFFER_MISS:        266  FULL:          0


CPU 0 Branch Prediction Accuracy: 92.3646% MPKI: 19.576 Average ROB Occupancy at Mispredict: 33.4927
Branch type MPKI
BRANCH_DIRECT_JUMP: 0
BRANCH_INDIRECT: 0
BRANCH_CONDITIONAL: 19.576
BRANCH_DIRECT_CALL: 0
BRANCH_INDIRECT_CALL: 0
BRANCH_RETURN: 0
