./bin/champsim --warmup_instructions=25000000 --simulation_instructions=25000000 ./traces/603.bwaves_s-1740B.champsimtrace.xz 

*** ChampSim Multicore Out-of-Order Simulator ***

Warmup Instructions: 25000000
Simulation Instructions: 25000000
Number of CPUs: 1
Off-chip DRAM Size: 4 GiB Channels: 1 Width: 64-bit Data Rate: 3200 MT/s

VirtualMemory physical capacity: 8588881920 num_ppages: 2096895
VirtualMemory page size: 4096 log2_page_size: 12

CPU 0 runs ./traces/603.bwaves_s-1740B.champsimtrace.xz
CPU 0 Bimodal branch predictor
Basic BTB sets: 1024 ways: 8 indirect buffer size: 4096 RAS size: 64
cpu0_L2C Stream Plus Stride Prefetcher 4 64
WARNING: The extended signature CACHE::prefetch_line(ip, base_addr, pf_addr, fill_this_level, prefetch_metadata) is deprecated.
WARNING: Use CACHE::prefetch_line(pf_addr, fill_this_level, prefetch_metadata) instead.
Heartbeat CPU 0 instructions: 10000001 cycles: 3642288 heartbeat IPC: 2.74553 cumulative IPC: 2.74553 (Simulation time: 0 hr 1 min 6 sec) 
Heartbeat CPU 0 instructions: 20000001 cycles: 7284434 heartbeat IPC: 2.74563 cumulative IPC: 2.74558 (Simulation time: 0 hr 2 min 14 sec) 

Warmup complete CPU 0 instructions: 25000001 cycles: 9105488 (Simulation time: 0 hr 2 min 58 sec) 

Heartbeat CPU 0 instructions: 30000003 cycles: 23463764 heartbeat IPC: 0.618073 cumulative IPC: 0.348231 (Simulation time: 0 hr 5 min 0 sec) 
Heartbeat CPU 0 instructions: 40000001 cycles: 52185602 heartbeat IPC: 0.348167 cumulative IPC: 0.348188 (Simulation time: 0 hr 7 min 40 sec) 
Heartbeat CPU 0 instructions: 50000001 cycles: 80907996 heartbeat IPC: 0.34816 cumulative IPC: 0.348177 (Simulation time: 0 hr 10 min 9 sec) 
Finished CPU 0 instructions: 25000000 cycles: 71802508 cumulative IPC: 0.348177 (Simulation time: 0 hr 10 min 9 sec) 

ChampSim completed all CPUs

Region of Interest Statistics

CPU 0 cumulative IPC: 0.348177 instructions: 25000000 cycles: 71802508
cpu0_DTLB TOTAL     ACCESS:    7858144  HIT:    7828953  MISS:      29191
cpu0_DTLB LOAD      ACCESS:    7302835  HIT:    7278502  MISS:      24333
cpu0_DTLB RFO       ACCESS:     555309  HIT:     550451  MISS:       4858
cpu0_DTLB PREFETCH  ACCESS:          0  HIT:          0  MISS:          0
cpu0_DTLB WRITEBACK ACCESS:          0  HIT:          0  MISS:          0
cpu0_DTLB TRANSLATION ACCESS:          0  HIT:          0  MISS:          0
cpu0_DTLB PREFETCH  REQUESTED:          0  ISSUED:          0  USEFUL:          0  USELESS:          0
cpu0_DTLB AVERAGE MISS LATENCY: 73.697 cycles
cpu0_ITLB TOTAL     ACCESS:    2203582  HIT:    2203582  MISS:          0
cpu0_ITLB LOAD      ACCESS:    2203582  HIT:    2203582  MISS:          0
cpu0_ITLB RFO       ACCESS:          0  HIT:          0  MISS:          0
cpu0_ITLB PREFETCH  ACCESS:          0  HIT:          0  MISS:          0
cpu0_ITLB WRITEBACK ACCESS:          0  HIT:          0  MISS:          0
cpu0_ITLB TRANSLATION ACCESS:          0  HIT:          0  MISS:          0
cpu0_ITLB PREFETCH  REQUESTED:          0  ISSUED:          0  USEFUL:          0  USELESS:          0
cpu0_ITLB AVERAGE MISS LATENCY: -nan cycles
cpu0_STLB TOTAL     ACCESS:      29191  HIT:      21767  MISS:       7424
cpu0_STLB LOAD      ACCESS:      24333  HIT:      17099  MISS:       7234
cpu0_STLB RFO       ACCESS:       4858  HIT:       4668  MISS:        190
cpu0_STLB PREFETCH  ACCESS:          0  HIT:          0  MISS:          0
cpu0_STLB WRITEBACK ACCESS:          0  HIT:          0  MISS:          0
cpu0_STLB TRANSLATION ACCESS:          0  HIT:          0  MISS:          0
cpu0_STLB PREFETCH  REQUESTED:          0  ISSUED:          0  USEFUL:          0  USELESS:          0
cpu0_STLB AVERAGE MISS LATENCY: 253.599 cycles
cpu0_L1D TOTAL     ACCESS:    7901660  HIT:    7401408  MISS:     500252
cpu0_L1D LOAD      ACCESS:    6505167  HIT:    6017540  MISS:     487627
cpu0_L1D RFO       ACCESS:    1389069  HIT:    1376888  MISS:      12181
cpu0_L1D PREFETCH  ACCESS:          0  HIT:          0  MISS:          0
cpu0_L1D WRITEBACK ACCESS:          0  HIT:          0  MISS:          0
cpu0_L1D TRANSLATION ACCESS:       7424  HIT:       6980  MISS:        444
cpu0_L1D PREFETCH  REQUESTED:          0  ISSUED:          0  USEFUL:          0  USELESS:          0
cpu0_L1D AVERAGE MISS LATENCY: 1165.32 cycles
cpu0_L2C TOTAL     ACCESS:     801863  HIT:     300976  MISS:     500887
cpu0_L2C LOAD      ACCESS:     487627  HIT:      24493  MISS:     463134
cpu0_L2C RFO       ACCESS:      12181  HIT:          0  MISS:      12181
cpu0_L2C PREFETCH  ACCESS:     289244  HIT:     263693  MISS:      25551
cpu0_L2C WRITEBACK ACCESS:      12367  HIT:      12367  MISS:          0
cpu0_L2C TRANSLATION ACCESS:        444  HIT:        423  MISS:         21
cpu0_L2C PREFETCH  REQUESTED:     318151  ISSUED:     303326  USEFUL:      24596  USELESS:        970
cpu0_L2C AVERAGE MISS LATENCY: 1218.17 cycles
LLC TOTAL     ACCESS:     517831  HIT:      17104  MISS:     500727
LLC LOAD      ACCESS:     463134  HIT:        245  MISS:     462889
LLC RFO       ACCESS:      12181  HIT:          0  MISS:      12181
LLC PREFETCH  ACCESS:      30329  HIT:       4690  MISS:      25639
LLC WRITEBACK ACCESS:      12166  HIT:      12163  MISS:          3
LLC TRANSLATION ACCESS:         21  HIT:          6  MISS:         15
LLC PREFETCH  REQUESTED:          0  ISSUED:          0  USEFUL:          0  USELESS:          0
LLC AVERAGE MISS LATENCY: 1215.47 cycles

DRAM Statistics
 CHANNEL 0
 RQ ROW_BUFFER_HIT:         22  ROW_BUFFER_MISS:     500702
 DBUS AVG_CONGESTED_CYCLE:    3.99958
 WQ ROW_BUFFER_HIT:       2817  ROW_BUFFER_MISS:       9507  FULL:          0


CPU 0 Branch Prediction Accuracy: 62.4635% MPKI: 9.3696 Average ROB Occupancy at Mispredict: 291.204
Branch type MPKI
BRANCH_DIRECT_JUMP: 0
BRANCH_INDIRECT: 0
BRANCH_CONDITIONAL: 9.3696
BRANCH_DIRECT_CALL: 0
BRANCH_INDIRECT_CALL: 0
BRANCH_RETURN: 0
