./bin/champsim --warmup_instructions=25000000 --simulation_instructions=25000000 ./traces/603.bwaves_s-1740B.champsimtrace.xz 

*** ChampSim Multicore Out-of-Order Simulator ***

Warmup Instructions: 25000000
Simulation Instructions: 25000000
Number of CPUs: 1
Off-chip DRAM Size: 4 GiB Channels: 1 Width: 64-bit Data Rate: 3200 MT/s

VirtualMemory physical capacity: 8588881920 num_ppages: 2096895
VirtualMemory page size: 4096 log2_page_size: 12

CPU 0 runs ./traces/603.bwaves_s-1740B.champsimtrace.xz
CPU 0 Bimodal branch predictor
Basic BTB sets: 1024 ways: 8 indirect buffer size: 4096 RAS size: 64
cpu0_L2C Stream Plus Stride Prefetcher 4 16
WARNING: The extended signature CACHE::prefetch_line(ip, base_addr, pf_addr, fill_this_level, prefetch_metadata) is deprecated.
WARNING: Use CACHE::prefetch_line(pf_addr, fill_this_level, prefetch_metadata) instead.
Heartbeat CPU 0 instructions: 10000001 cycles: 3642288 heartbeat IPC: 2.74553 cumulative IPC: 2.74553 (Simulation time: 0 hr 0 min 54 sec) 
Heartbeat CPU 0 instructions: 20000001 cycles: 7284434 heartbeat IPC: 2.74563 cumulative IPC: 2.74558 (Simulation time: 0 hr 1 min 56 sec) 

Warmup complete CPU 0 instructions: 25000001 cycles: 9105488 (Simulation time: 0 hr 2 min 19 sec) 

Heartbeat CPU 0 instructions: 30000003 cycles: 23463249 heartbeat IPC: 0.618092 cumulative IPC: 0.348244 (Simulation time: 0 hr 3 min 59 sec) 
Heartbeat CPU 0 instructions: 40000001 cycles: 52179222 heartbeat IPC: 0.348238 cumulative IPC: 0.34824 (Simulation time: 0 hr 6 min 37 sec) 
Heartbeat CPU 0 instructions: 50000001 cycles: 80893653 heartbeat IPC: 0.348257 cumulative IPC: 0.348247 (Simulation time: 0 hr 8 min 46 sec) 
Finished CPU 0 instructions: 25000000 cycles: 71788165 cumulative IPC: 0.348247 (Simulation time: 0 hr 8 min 46 sec) 

ChampSim completed all CPUs

Region of Interest Statistics

CPU 0 cumulative IPC: 0.348247 instructions: 25000000 cycles: 71788165
cpu0_DTLB TOTAL     ACCESS:    7858186  HIT:    7828989  MISS:      29197
cpu0_DTLB LOAD      ACCESS:    7302906  HIT:    7278567  MISS:      24339
cpu0_DTLB RFO       ACCESS:     555280  HIT:     550422  MISS:       4858
cpu0_DTLB PREFETCH  ACCESS:          0  HIT:          0  MISS:          0
cpu0_DTLB WRITEBACK ACCESS:          0  HIT:          0  MISS:          0
cpu0_DTLB TRANSLATION ACCESS:          0  HIT:          0  MISS:          0
cpu0_DTLB PREFETCH  REQUESTED:          0  ISSUED:          0  USEFUL:          0  USELESS:          0
cpu0_DTLB AVERAGE MISS LATENCY: 73.7197 cycles
cpu0_ITLB TOTAL     ACCESS:    2203701  HIT:    2203701  MISS:          0
cpu0_ITLB LOAD      ACCESS:    2203701  HIT:    2203701  MISS:          0
cpu0_ITLB RFO       ACCESS:          0  HIT:          0  MISS:          0
cpu0_ITLB PREFETCH  ACCESS:          0  HIT:          0  MISS:          0
cpu0_ITLB WRITEBACK ACCESS:          0  HIT:          0  MISS:          0
cpu0_ITLB TRANSLATION ACCESS:          0  HIT:          0  MISS:          0
cpu0_ITLB PREFETCH  REQUESTED:          0  ISSUED:          0  USEFUL:          0  USELESS:          0
cpu0_ITLB AVERAGE MISS LATENCY: -nan cycles
cpu0_STLB TOTAL     ACCESS:      29197  HIT:      21773  MISS:       7424
cpu0_STLB LOAD      ACCESS:      24339  HIT:      17105  MISS:       7234
cpu0_STLB RFO       ACCESS:       4858  HIT:       4668  MISS:        190
cpu0_STLB PREFETCH  ACCESS:          0  HIT:          0  MISS:          0
cpu0_STLB WRITEBACK ACCESS:          0  HIT:          0  MISS:          0
cpu0_STLB TRANSLATION ACCESS:          0  HIT:          0  MISS:          0
cpu0_STLB PREFETCH  REQUESTED:          0  ISSUED:          0  USEFUL:          0  USELESS:          0
cpu0_STLB AVERAGE MISS LATENCY: 253.74 cycles
cpu0_L1D TOTAL     ACCESS:    7901689  HIT:    7401437  MISS:     500252
cpu0_L1D LOAD      ACCESS:    6505202  HIT:    6017575  MISS:     487627
cpu0_L1D RFO       ACCESS:    1389063  HIT:    1376882  MISS:      12181
cpu0_L1D PREFETCH  ACCESS:          0  HIT:          0  MISS:          0
cpu0_L1D WRITEBACK ACCESS:          0  HIT:          0  MISS:          0
cpu0_L1D TRANSLATION ACCESS:       7424  HIT:       6980  MISS:        444
cpu0_L1D PREFETCH  REQUESTED:          0  ISSUED:          0  USEFUL:          0  USELESS:          0
cpu0_L1D AVERAGE MISS LATENCY: 1165.18 cycles
cpu0_L2C TOTAL     ACCESS:     701275  HIT:     200606  MISS:     500669
cpu0_L2C LOAD      ACCESS:     487627  HIT:      24501  MISS:     463126
cpu0_L2C RFO       ACCESS:      12181  HIT:          0  MISS:      12181
cpu0_L2C PREFETCH  ACCESS:     188656  HIT:     163313  MISS:      25343
cpu0_L2C WRITEBACK ACCESS:      12367  HIT:      12367  MISS:          0
cpu0_L2C TRANSLATION ACCESS:        444  HIT:        425  MISS:         19
cpu0_L2C PREFETCH  REQUESTED:     201935  ISSUED:     197856  USEFUL:      22174  USELESS:       3185
cpu0_L2C AVERAGE MISS LATENCY: 1219.37 cycles
LLC TOTAL     ACCESS:     517381  HIT:      16312  MISS:     501069
LLC LOAD      ACCESS:     463126  HIT:        239  MISS:     462887
LLC RFO       ACCESS:      12181  HIT:          0  MISS:      12181
LLC PREFETCH  ACCESS:      29886  HIT:       3904  MISS:      25982
LLC WRITEBACK ACCESS:      12169  HIT:      12166  MISS:          3
LLC TRANSLATION ACCESS:         19  HIT:          3  MISS:         16
LLC PREFETCH  REQUESTED:          0  ISSUED:          0  USEFUL:          0  USELESS:          0
LLC AVERAGE MISS LATENCY: 1214.93 cycles

DRAM Statistics
 CHANNEL 0
 RQ ROW_BUFFER_HIT:         22  ROW_BUFFER_MISS:     501044
 DBUS AVG_CONGESTED_CYCLE:    3.99965
 WQ ROW_BUFFER_HIT:       2761  ROW_BUFFER_MISS:       9565  FULL:          0


CPU 0 Branch Prediction Accuracy: 62.4635% MPKI: 9.3696 Average ROB Occupancy at Mispredict: 291.21
Branch type MPKI
BRANCH_DIRECT_JUMP: 0
BRANCH_INDIRECT: 0
BRANCH_CONDITIONAL: 9.3696
BRANCH_DIRECT_CALL: 0
BRANCH_INDIRECT_CALL: 0
BRANCH_RETURN: 0