./bin/champsim --warmup_instructions=25000000 --simulation_instructions=25000000 ./traces/603.bwaves_s-1740B.champsimtrace.xz 

*** ChampSim Multicore Out-of-Order Simulator ***

Warmup Instructions: 25000000
Simulation Instructions: 25000000
Number of CPUs: 1
Off-chip DRAM Size: 4 GiB Channels: 1 Width: 64-bit Data Rate: 3200 MT/s

VirtualMemory physical capacity: 8588881920 num_ppages: 2096895
VirtualMemory page size: 4096 log2_page_size: 12

CPU 0 runs ./traces/603.bwaves_s-1740B.champsimtrace.xz
CPU 0 Bimodal branch predictor
Basic BTB sets: 1024 ways: 8 indirect buffer size: 4096 RAS size: 64
cpu0_L2C Stream Plus Stride Prefetcher 2 16
WARNING: The extended signature CACHE::prefetch_line(ip, base_addr, pf_addr, fill_this_level, prefetch_metadata) is deprecated.
WARNING: Use CACHE::prefetch_line(pf_addr, fill_this_level, prefetch_metadata) instead.
Heartbeat CPU 0 instructions: 10000001 cycles: 3642288 heartbeat IPC: 2.74553 cumulative IPC: 2.74553 (Simulation time: 0 hr 0 min 45 sec) 
Heartbeat CPU 0 instructions: 20000001 cycles: 7284434 heartbeat IPC: 2.74563 cumulative IPC: 2.74558 (Simulation time: 0 hr 1 min 48 sec) 

Warmup complete CPU 0 instructions: 25000001 cycles: 9105488 (Simulation time: 0 hr 2 min 15 sec) 

Heartbeat CPU 0 instructions: 30000003 cycles: 23463219 heartbeat IPC: 0.618093 cumulative IPC: 0.348245 (Simulation time: 0 hr 3 min 48 sec) 
Heartbeat CPU 0 instructions: 40000001 cycles: 52175027 heartbeat IPC: 0.348289 cumulative IPC: 0.348274 (Simulation time: 0 hr 6 min 43 sec) 
Heartbeat CPU 0 instructions: 50000001 cycles: 80879771 heartbeat IPC: 0.348374 cumulative IPC: 0.348314 (Simulation time: 0 hr 9 min 12 sec) 
Finished CPU 0 instructions: 25000000 cycles: 71774283 cumulative IPC: 0.348314 (Simulation time: 0 hr 9 min 12 sec) 

ChampSim completed all CPUs

Region of Interest Statistics

CPU 0 cumulative IPC: 0.348314 instructions: 25000000 cycles: 71774283
cpu0_DTLB TOTAL     ACCESS:    7858321  HIT:    7829138  MISS:      29183
cpu0_DTLB LOAD      ACCESS:    7302993  HIT:    7278657  MISS:      24336
cpu0_DTLB RFO       ACCESS:     555328  HIT:     550481  MISS:       4847
cpu0_DTLB PREFETCH  ACCESS:          0  HIT:          0  MISS:          0
cpu0_DTLB WRITEBACK ACCESS:          0  HIT:          0  MISS:          0
cpu0_DTLB TRANSLATION ACCESS:          0  HIT:          0  MISS:          0
cpu0_DTLB PREFETCH  REQUESTED:          0  ISSUED:          0  USEFUL:          0  USELESS:          0
cpu0_DTLB AVERAGE MISS LATENCY: 73.7503 cycles
cpu0_ITLB TOTAL     ACCESS:    2203623  HIT:    2203623  MISS:          0
cpu0_ITLB LOAD      ACCESS:    2203623  HIT:    2203623  MISS:          0
cpu0_ITLB RFO       ACCESS:          0  HIT:          0  MISS:          0
cpu0_ITLB PREFETCH  ACCESS:          0  HIT:          0  MISS:          0
cpu0_ITLB WRITEBACK ACCESS:          0  HIT:          0  MISS:          0
cpu0_ITLB TRANSLATION ACCESS:          0  HIT:          0  MISS:          0
cpu0_ITLB PREFETCH  REQUESTED:          0  ISSUED:          0  USEFUL:          0  USELESS:          0
cpu0_ITLB AVERAGE MISS LATENCY: -nan cycles
cpu0_STLB TOTAL     ACCESS:      29183  HIT:      21759  MISS:       7424
cpu0_STLB LOAD      ACCESS:      24336  HIT:      17102  MISS:       7234
cpu0_STLB RFO       ACCESS:       4847  HIT:       4657  MISS:        190
cpu0_STLB PREFETCH  ACCESS:          0  HIT:          0  MISS:          0
cpu0_STLB WRITEBACK ACCESS:          0  HIT:          0  MISS:          0
cpu0_STLB TRANSLATION ACCESS:          0  HIT:          0  MISS:          0
cpu0_STLB PREFETCH  REQUESTED:          0  ISSUED:          0  USEFUL:          0  USELESS:          0
cpu0_STLB AVERAGE MISS LATENCY: 253.738 cycles
cpu0_L1D TOTAL     ACCESS:    7901768  HIT:    7401516  MISS:     500252
cpu0_L1D LOAD      ACCESS:    6505282  HIT:    6017655  MISS:     487627
cpu0_L1D RFO       ACCESS:    1389062  HIT:    1376881  MISS:      12181
cpu0_L1D PREFETCH  ACCESS:          0  HIT:          0  MISS:          0
cpu0_L1D WRITEBACK ACCESS:          0  HIT:          0  MISS:          0
cpu0_L1D TRANSLATION ACCESS:       7424  HIT:       6980  MISS:        444
cpu0_L1D PREFETCH  REQUESTED:          0  ISSUED:          0  USEFUL:          0  USELESS:          0
cpu0_L1D AVERAGE MISS LATENCY: 1165.03 cycles
cpu0_L2C TOTAL     ACCESS:     822047  HIT:     321813  MISS:     500234
cpu0_L2C LOAD      ACCESS:     487627  HIT:      24499  MISS:     463128
cpu0_L2C RFO       ACCESS:      12181  HIT:          0  MISS:      12181
cpu0_L2C PREFETCH  ACCESS:     309428  HIT:     284522  MISS:      24906
cpu0_L2C WRITEBACK ACCESS:      12367  HIT:      12367  MISS:          0
cpu0_L2C TRANSLATION ACCESS:        444  HIT:        425  MISS:         19
cpu0_L2C PREFETCH  REQUESTED:     342231  ISSUED:     324561  USEFUL:      22974  USELESS:       1919
cpu0_L2C AVERAGE MISS LATENCY: 1217.64 cycles
LLC TOTAL     ACCESS:     518175  HIT:      17417  MISS:     500758
LLC LOAD      ACCESS:     463128  HIT:        241  MISS:     462887
LLC RFO       ACCESS:      12181  HIT:          0  MISS:      12181
LLC PREFETCH  ACCESS:      30679  HIT:       5008  MISS:      25671
LLC WRITEBACK ACCESS:      12168  HIT:      12165  MISS:          3
LLC TRANSLATION ACCESS:         19  HIT:          3  MISS:         16
LLC PREFETCH  REQUESTED:          0  ISSUED:          0  USEFUL:          0  USELESS:          0
LLC AVERAGE MISS LATENCY: 1214.02 cycles

DRAM Statistics
 CHANNEL 0
 RQ ROW_BUFFER_HIT:         21  ROW_BUFFER_MISS:     500734
 DBUS AVG_CONGESTED_CYCLE:    3.99954
 WQ ROW_BUFFER_HIT:       2735  ROW_BUFFER_MISS:       9593  FULL:          0


CPU 0 Branch Prediction Accuracy: 62.4635% MPKI: 9.3696 Average ROB Occupancy at Mispredict: 291.202
Branch type MPKI
BRANCH_DIRECT_JUMP: 0
BRANCH_INDIRECT: 0
BRANCH_CONDITIONAL: 9.3696
BRANCH_DIRECT_CALL: 0
BRANCH_INDIRECT_CALL: 0
BRANCH_RETURN: 0