./bin/champsim --warmup_instructions=25000000 --simulation_instructions=25000000 ./traces/619.lbm_s-2677B.champsimtrace.xz 

*** ChampSim Multicore Out-of-Order Simulator ***

Warmup Instructions: 25000000
Simulation Instructions: 25000000
Number of CPUs: 1
Off-chip DRAM Size: 4 GiB Channels: 1 Width: 64-bit Data Rate: 3200 MT/s

VirtualMemory physical capacity: 8588881920 num_ppages: 2096895
VirtualMemory page size: 4096 log2_page_size: 12

CPU 0 runs ./traces/619.lbm_s-2677B.champsimtrace.xz
CPU 0 Bimodal branch predictor
Basic BTB sets: 1024 ways: 8 indirect buffer size: 4096 RAS size: 64
cpu0_L2C Stream Plus Stride Prefetcher 3 16
WARNING: The extended signature CACHE::prefetch_line(ip, base_addr, pf_addr, fill_this_level, prefetch_metadata) is deprecated.
WARNING: Use CACHE::prefetch_line(pf_addr, fill_this_level, prefetch_metadata) instead.
Heartbeat CPU 0 instructions: 10000003 cycles: 2593061 heartbeat IPC: 3.85645 cumulative IPC: 3.85645 (Simulation time: 0 hr 0 min 40 sec) 
Heartbeat CPU 0 instructions: 20000001 cycles: 5181535 heartbeat IPC: 3.86328 cumulative IPC: 3.85986 (Simulation time: 0 hr 1 min 28 sec) 

Warmup complete CPU 0 instructions: 25000001 cycles: 6475782 (Simulation time: 0 hr 1 min 54 sec) 

Heartbeat CPU 0 instructions: 30000002 cycles: 29911281 heartbeat IPC: 0.404371 cumulative IPC: 0.213352 (Simulation time: 0 hr 4 min 6 sec) 
Heartbeat CPU 0 instructions: 40000004 cycles: 76579623 heartbeat IPC: 0.214278 cumulative IPC: 0.213968 (Simulation time: 0 hr 7 min 53 sec) 
Heartbeat CPU 0 instructions: 50000004 cycles: 124383456 heartbeat IPC: 0.209188 cumulative IPC: 0.21203 (Simulation time: 0 hr 11 min 0 sec) 
Finished CPU 0 instructions: 25000003 cycles: 117907674 cumulative IPC: 0.21203 (Simulation time: 0 hr 11 min 0 sec) 

ChampSim completed all CPUs

Region of Interest Statistics

CPU 0 cumulative IPC: 0.21203 instructions: 25000003 cycles: 117907674
cpu0_DTLB TOTAL     ACCESS:    4450789  HIT:    4416742  MISS:      34047
cpu0_DTLB LOAD      ACCESS:    1980896  HIT:    1976275  MISS:       4621
cpu0_DTLB RFO       ACCESS:    2469893  HIT:    2440467  MISS:      29426
cpu0_DTLB PREFETCH  ACCESS:          0  HIT:          0  MISS:          0
cpu0_DTLB WRITEBACK ACCESS:          0  HIT:          0  MISS:          0
cpu0_DTLB TRANSLATION ACCESS:          0  HIT:          0  MISS:          0
cpu0_DTLB PREFETCH  REQUESTED:          0  ISSUED:          0  USEFUL:          0  USELESS:          0
cpu0_DTLB AVERAGE MISS LATENCY: 516.316 cycles
cpu0_ITLB TOTAL     ACCESS:     472184  HIT:     472184  MISS:          0
cpu0_ITLB LOAD      ACCESS:     472184  HIT:     472184  MISS:          0
cpu0_ITLB RFO       ACCESS:          0  HIT:          0  MISS:          0
cpu0_ITLB PREFETCH  ACCESS:          0  HIT:          0  MISS:          0
cpu0_ITLB WRITEBACK ACCESS:          0  HIT:          0  MISS:          0
cpu0_ITLB TRANSLATION ACCESS:          0  HIT:          0  MISS:          0
cpu0_ITLB PREFETCH  REQUESTED:          0  ISSUED:          0  USEFUL:          0  USELESS:          0
cpu0_ITLB AVERAGE MISS LATENCY: -nan cycles
cpu0_L1I TOTAL     ACCESS:     551508  HIT:     551508  MISS:          0
cpu0_L1I LOAD      ACCESS:     551508  HIT:     551508  MISS:          0
cpu0_L1I RFO       ACCESS:          0  HIT:          0  MISS:          0
cpu0_L1I PREFETCH  ACCESS:          0  HIT:          0  MISS:          0
cpu0_L1I WRITEBACK ACCESS:          0  HIT:          0  MISS:          0
cpu0_L1I TRANSLATION ACCESS:          0  HIT:          0  MISS:          0
cpu0_L1I PREFETCH  REQUESTED:          0  ISSUED:          0  USEFUL:          0  USELESS:          0
cpu0_L1I AVERAGE MISS LATENCY: -nan cycles
cpu0_STLB TOTAL     ACCESS:      34047  HIT:      15571  MISS:      18476
cpu0_STLB LOAD      ACCESS:       4621  HIT:          0  MISS:       4621
cpu0_STLB RFO       ACCESS:      29426  HIT:      15571  MISS:      13855
cpu0_STLB PREFETCH  ACCESS:          0  HIT:          0  MISS:          0
cpu0_STLB WRITEBACK ACCESS:          0  HIT:          0  MISS:          0
cpu0_STLB TRANSLATION ACCESS:          0  HIT:          0  MISS:          0
cpu0_STLB PREFETCH  REQUESTED:          0  ISSUED:          0  USEFUL:          0  USELESS:          0
cpu0_STLB AVERAGE MISS LATENCY: 934.724 cycles
cpu0_L1D TOTAL     ACCESS:    5916218  HIT:    3965640  MISS:    1950578
cpu0_L1D LOAD      ACCESS:    1404151  HIT:    1108598  MISS:     295553
cpu0_L1D RFO       ACCESS:    4494545  HIT:    2839529  MISS:    1655016
cpu0_L1D PREFETCH  ACCESS:          0  HIT:          0  MISS:          0
cpu0_L1D WRITEBACK ACCESS:          0  HIT:          0  MISS:          0
cpu0_L1D TRANSLATION ACCESS:      17522  HIT:      17513  MISS:          9
cpu0_L1D PREFETCH  REQUESTED:          0  ISSUED:          0  USEFUL:          0  USELESS:          0
cpu0_L1D AVERAGE MISS LATENCY: 755.675 cycles
cpu0_L2C TOTAL     ACCESS:    3606000  HIT:    2396816  MISS:    1209184
cpu0_L2C LOAD      ACCESS:     295553  HIT:          4  MISS:     295549
cpu0_L2C RFO       ACCESS:    1655015  HIT:     741814  MISS:     913201
cpu0_L2C PREFETCH  ACCESS:        381  HIT:         11  MISS:        370
cpu0_L2C WRITEBACK ACCESS:    1655042  HIT:    1654987  MISS:         55
cpu0_L2C TRANSLATION ACCESS:          9  HIT:          0  MISS:          9
cpu0_L2C PREFETCH  REQUESTED:        604  ISSUED:        584  USEFUL:          7  USELESS:        368
cpu0_L2C AVERAGE MISS LATENCY: 1201.68 cycles
LLC TOTAL     ACCESS:    2122328  HIT:     939620  MISS:    1182708
LLC LOAD      ACCESS:     295549  HIT:          2  MISS:     295547
LLC RFO       ACCESS:     913150  HIT:      26567  MISS:     886583
LLC PREFETCH  ACCESS:        529  HIT:          2  MISS:        527
LLC WRITEBACK ACCESS:     913091  HIT:     913049  MISS:         42
LLC TRANSLATION ACCESS:          9  HIT:          0  MISS:          9
LLC PREFETCH  REQUESTED:          0  ISSUED:          0  USEFUL:          0  USELESS:          0
LLC AVERAGE MISS LATENCY: 1207.35 cycles

DRAM Statistics
 CHANNEL 0
 RQ ROW_BUFFER_HIT:      36622  ROW_BUFFER_MISS:    1146044
 DBUS AVG_CONGESTED_CYCLE:    4.00312
 WQ ROW_BUFFER_HIT:      17901  ROW_BUFFER_MISS:     868574  FULL:          0


CPU 0 Branch Prediction Accuracy: 95.9842% MPKI: 0.71772 Average ROB Occupancy at Mispredict: 258.983
Branch type MPKI
BRANCH_DIRECT_JUMP: 0
BRANCH_INDIRECT: 0
BRANCH_CONDITIONAL: 0.71772
BRANCH_DIRECT_CALL: 0
BRANCH_INDIRECT_CALL: 0
BRANCH_RETURN: 0
