./bin/champsim --warmup_instructions=25000000 --simulation_instructions=25000000 ./traces/619.lbm_s-2677B.champsimtrace.xz 

*** ChampSim Multicore Out-of-Order Simulator ***

Warmup Instructions: 25000000
Simulation Instructions: 25000000
Number of CPUs: 1
Off-chip DRAM Size: 4 GiB Channels: 1 Width: 64-bit Data Rate: 3200 MT/s

VirtualMemory physical capacity: 8588881920 num_ppages: 2096895
VirtualMemory page size: 4096 log2_page_size: 12

CPU 0 runs ./traces/619.lbm_s-2677B.champsimtrace.xz
CPU 0 Bimodal branch predictor
Basic BTB sets: 1024 ways: 8 indirect buffer size: 4096 RAS size: 64
cpu0_L2C Stream Plus Stride Prefetcher 1 4
WARNING: The extended signature CACHE::prefetch_line(ip, base_addr, pf_addr, fill_this_level, prefetch_metadata) is deprecated.
WARNING: Use CACHE::prefetch_line(pf_addr, fill_this_level, prefetch_metadata) instead.
Heartbeat CPU 0 instructions: 10000003 cycles: 2592991 heartbeat IPC: 3.85655 cumulative IPC: 3.85655 (Simulation time: 0 hr 0 min 29 sec) 
Heartbeat CPU 0 instructions: 20000001 cycles: 5181408 heartbeat IPC: 3.86336 cumulative IPC: 3.85995 (Simulation time: 0 hr 1 min 4 sec) 

Warmup complete CPU 0 instructions: 25000001 cycles: 6475610 (Simulation time: 0 hr 1 min 24 sec) 

Heartbeat CPU 0 instructions: 30000002 cycles: 29890157 heartbeat IPC: 0.404715 cumulative IPC: 0.213543 (Simulation time: 0 hr 3 min 34 sec) 
Heartbeat CPU 0 instructions: 40000004 cycles: 76557591 heartbeat IPC: 0.214282 cumulative IPC: 0.214035 (Simulation time: 0 hr 7 min 10 sec) 
Heartbeat CPU 0 instructions: 50000001 cycles: 124374548 heartbeat IPC: 0.209131 cumulative IPC: 0.212046 (Simulation time: 0 hr 10 min 5 sec) 
Finished CPU 0 instructions: 25000000 cycles: 117898938 cumulative IPC: 0.212046 (Simulation time: 0 hr 10 min 5 sec) 

ChampSim completed all CPUs

Region of Interest Statistics

CPU 0 cumulative IPC: 0.212046 instructions: 25000000 cycles: 117898938
cpu0_DTLB TOTAL     ACCESS:    4451132  HIT:    4417085  MISS:      34047
cpu0_DTLB LOAD      ACCESS:    1980834  HIT:    1976213  MISS:       4621
cpu0_DTLB RFO       ACCESS:    2470298  HIT:    2440872  MISS:      29426
cpu0_DTLB PREFETCH  ACCESS:          0  HIT:          0  MISS:          0
cpu0_DTLB WRITEBACK ACCESS:          0  HIT:          0  MISS:          0
cpu0_DTLB TRANSLATION ACCESS:          0  HIT:          0  MISS:          0
cpu0_DTLB PREFETCH  REQUESTED:          0  ISSUED:          0  USEFUL:          0  USELESS:          0
cpu0_DTLB AVERAGE MISS LATENCY: 513.904 cycles
cpu0_ITLB TOTAL     ACCESS:     472485  HIT:     472485  MISS:          0
cpu0_ITLB LOAD      ACCESS:     472485  HIT:     472485  MISS:          0
cpu0_ITLB RFO       ACCESS:          0  HIT:          0  MISS:          0
cpu0_ITLB PREFETCH  ACCESS:          0  HIT:          0  MISS:          0
cpu0_ITLB WRITEBACK ACCESS:          0  HIT:          0  MISS:          0
cpu0_ITLB TRANSLATION ACCESS:          0  HIT:          0  MISS:          0
cpu0_ITLB PREFETCH  REQUESTED:          0  ISSUED:          0  USEFUL:          0  USELESS:          0
cpu0_ITLB AVERAGE MISS LATENCY: -nan cycles
cpu0_L1I TOTAL     ACCESS:     551615  HIT:     551615  MISS:          0
cpu0_L1I LOAD      ACCESS:     551615  HIT:     551615  MISS:          0
cpu0_L1I RFO       ACCESS:          0  HIT:          0  MISS:          0
cpu0_L1I PREFETCH  ACCESS:          0  HIT:          0  MISS:          0
cpu0_L1I WRITEBACK ACCESS:          0  HIT:          0  MISS:          0
cpu0_L1I TRANSLATION ACCESS:          0  HIT:          0  MISS:          0
cpu0_L1I PREFETCH  REQUESTED:          0  ISSUED:          0  USEFUL:          0  USELESS:          0
cpu0_L1I AVERAGE MISS LATENCY: -nan cycles
cpu0_STLB TOTAL     ACCESS:      34047  HIT:      15571  MISS:      18476
cpu0_STLB LOAD      ACCESS:       4621  HIT:          0  MISS:       4621
cpu0_STLB RFO       ACCESS:      29426  HIT:      15571  MISS:      13855
cpu0_STLB PREFETCH  ACCESS:          0  HIT:          0  MISS:          0
cpu0_STLB WRITEBACK ACCESS:          0  HIT:          0  MISS:          0
cpu0_STLB TRANSLATION ACCESS:          0  HIT:          0  MISS:          0
cpu0_STLB PREFETCH  REQUESTED:          0  ISSUED:          0  USEFUL:          0  USELESS:          0
cpu0_STLB AVERAGE MISS LATENCY: 930.28 cycles
cpu0_L1D TOTAL     ACCESS:    5917226  HIT:    3966649  MISS:    1950577
cpu0_L1D LOAD      ACCESS:    1405287  HIT:    1109737  MISS:     295550
cpu0_L1D RFO       ACCESS:    4494414  HIT:    2839396  MISS:    1655018
cpu0_L1D PREFETCH  ACCESS:          0  HIT:          0  MISS:          0
cpu0_L1D WRITEBACK ACCESS:          0  HIT:          0  MISS:          0
cpu0_L1D TRANSLATION ACCESS:      17525  HIT:      17516  MISS:          9
cpu0_L1D PREFETCH  REQUESTED:          0  ISSUED:          0  USEFUL:          0  USELESS:          0
cpu0_L1D AVERAGE MISS LATENCY: 755.661 cycles
cpu0_L2C TOTAL     ACCESS:    3606030  HIT:    2396684  MISS:    1209346
cpu0_L2C LOAD      ACCESS:     295550  HIT:          3  MISS:     295547
cpu0_L2C RFO       ACCESS:    1655018  HIT:     741674  MISS:     913344
cpu0_L2C PREFETCH  ACCESS:        409  HIT:         20  MISS:        389
cpu0_L2C WRITEBACK ACCESS:    1655044  HIT:    1654987  MISS:         57
cpu0_L2C TRANSLATION ACCESS:          9  HIT:          0  MISS:          9
cpu0_L2C PREFETCH  REQUESTED:        687  ISSUED:        653  USEFUL:         17  USELESS:        377
cpu0_L2C AVERAGE MISS LATENCY: 1201.49 cycles
LLC TOTAL     ACCESS:    2122624  HIT:     939898  MISS:    1182726
LLC LOAD      ACCESS:     295547  HIT:          0  MISS:     295547
LLC RFO       ACCESS:     913295  HIT:      26712  MISS:     886583
LLC PREFETCH  ACCESS:        544  HIT:          4  MISS:        540
LLC WRITEBACK ACCESS:     913229  HIT:     913182  MISS:         47
LLC TRANSLATION ACCESS:          9  HIT:          0  MISS:          9
LLC PREFETCH  REQUESTED:          0  ISSUED:          0  USEFUL:          0  USELESS:          0
LLC AVERAGE MISS LATENCY: 1207.31 cycles

DRAM Statistics
 CHANNEL 0
 RQ ROW_BUFFER_HIT:      36820  ROW_BUFFER_MISS:    1145859
 DBUS AVG_CONGESTED_CYCLE:    4.00288
 WQ ROW_BUFFER_HIT:      17677  ROW_BUFFER_MISS:     868582  FULL:          0


CPU 0 Branch Prediction Accuracy: 95.9842% MPKI: 0.71772 Average ROB Occupancy at Mispredict: 259.096
Branch type MPKI
BRANCH_DIRECT_JUMP: 0
BRANCH_INDIRECT: 0
BRANCH_CONDITIONAL: 0.71772
BRANCH_DIRECT_CALL: 0
BRANCH_INDIRECT_CALL: 0
BRANCH_RETURN: 0
