./bin/champsim --warmup_instructions=25000000 --simulation_instructions=25000000 ./traces/619.lbm_s-2677B.champsimtrace.xz 

*** ChampSim Multicore Out-of-Order Simulator ***

Warmup Instructions: 25000000
Simulation Instructions: 25000000
Number of CPUs: 1
Off-chip DRAM Size: 4 GiB Channels: 1 Width: 64-bit Data Rate: 3200 MT/s

VirtualMemory physical capacity: 8588881920 num_ppages: 2096895
VirtualMemory page size: 4096 log2_page_size: 12

CPU 0 runs ./traces/619.lbm_s-2677B.champsimtrace.xz
CPU 0 Bimodal branch predictor
Basic BTB sets: 1024 ways: 8 indirect buffer size: 4096 RAS size: 64
cpu0_L2C Stream Plus Stride Prefetcher 2 4
WARNING: The extended signature CACHE::prefetch_line(ip, base_addr, pf_addr, fill_this_level, prefetch_metadata) is deprecated.
WARNING: Use CACHE::prefetch_line(pf_addr, fill_this_level, prefetch_metadata) instead.
Heartbeat CPU 0 instructions: 10000003 cycles: 2592967 heartbeat IPC: 3.85659 cumulative IPC: 3.85659 (Simulation time: 0 hr 0 min 39 sec) 
Heartbeat CPU 0 instructions: 20000001 cycles: 5181422 heartbeat IPC: 3.86331 cumulative IPC: 3.85994 (Simulation time: 0 hr 1 min 27 sec) 

Warmup complete CPU 0 instructions: 25000001 cycles: 6475643 (Simulation time: 0 hr 1 min 48 sec) 

Heartbeat CPU 0 instructions: 30000002 cycles: 29942671 heartbeat IPC: 0.403857 cumulative IPC: 0.213065 (Simulation time: 0 hr 4 min 12 sec) 
Heartbeat CPU 0 instructions: 40000004 cycles: 76642915 heartbeat IPC: 0.214132 cumulative IPC: 0.213775 (Simulation time: 0 hr 8 min 8 sec) 
Heartbeat CPU 0 instructions: 50000001 cycles: 124492883 heartbeat IPC: 0.208986 cumulative IPC: 0.211833 (Simulation time: 0 hr 11 min 8 sec) 
Finished CPU 0 instructions: 25000000 cycles: 118017240 cumulative IPC: 0.211833 (Simulation time: 0 hr 11 min 8 sec) 

ChampSim completed all CPUs

Region of Interest Statistics

CPU 0 cumulative IPC: 0.211833 instructions: 25000000 cycles: 118017240
cpu0_DTLB TOTAL     ACCESS:    4450016  HIT:    4415969  MISS:      34047
cpu0_DTLB LOAD      ACCESS:    1980157  HIT:    1975536  MISS:       4621
cpu0_DTLB RFO       ACCESS:    2469859  HIT:    2440433  MISS:      29426
cpu0_DTLB PREFETCH  ACCESS:          0  HIT:          0  MISS:          0
cpu0_DTLB WRITEBACK ACCESS:          0  HIT:          0  MISS:          0
cpu0_DTLB TRANSLATION ACCESS:          0  HIT:          0  MISS:          0
cpu0_DTLB PREFETCH  REQUESTED:          0  ISSUED:          0  USEFUL:          0  USELESS:          0
cpu0_DTLB AVERAGE MISS LATENCY: 514.633 cycles
cpu0_ITLB TOTAL     ACCESS:     472415  HIT:     472415  MISS:          0
cpu0_ITLB LOAD      ACCESS:     472415  HIT:     472415  MISS:          0
cpu0_ITLB RFO       ACCESS:          0  HIT:          0  MISS:          0
cpu0_ITLB PREFETCH  ACCESS:          0  HIT:          0  MISS:          0
cpu0_ITLB WRITEBACK ACCESS:          0  HIT:          0  MISS:          0
cpu0_ITLB TRANSLATION ACCESS:          0  HIT:          0  MISS:          0
cpu0_ITLB PREFETCH  REQUESTED:          0  ISSUED:          0  USEFUL:          0  USELESS:          0
cpu0_ITLB AVERAGE MISS LATENCY: -nan cycles
cpu0_L1I TOTAL     ACCESS:     551952  HIT:     551952  MISS:          0
cpu0_L1I LOAD      ACCESS:     551952  HIT:     551952  MISS:          0
cpu0_L1I RFO       ACCESS:          0  HIT:          0  MISS:          0
cpu0_L1I PREFETCH  ACCESS:          0  HIT:          0  MISS:          0
cpu0_L1I WRITEBACK ACCESS:          0  HIT:          0  MISS:          0
cpu0_L1I TRANSLATION ACCESS:          0  HIT:          0  MISS:          0
cpu0_L1I PREFETCH  REQUESTED:          0  ISSUED:          0  USEFUL:          0  USELESS:          0
cpu0_L1I AVERAGE MISS LATENCY: -nan cycles
cpu0_STLB TOTAL     ACCESS:      34047  HIT:      15571  MISS:      18476
cpu0_STLB LOAD      ACCESS:       4621  HIT:          0  MISS:       4621
cpu0_STLB RFO       ACCESS:      29426  HIT:      15571  MISS:      13855
cpu0_STLB PREFETCH  ACCESS:          0  HIT:          0  MISS:          0
cpu0_STLB WRITEBACK ACCESS:          0  HIT:          0  MISS:          0
cpu0_STLB TRANSLATION ACCESS:          0  HIT:          0  MISS:          0
cpu0_STLB PREFETCH  REQUESTED:          0  ISSUED:          0  USEFUL:          0  USELESS:          0
cpu0_STLB AVERAGE MISS LATENCY: 931.623 cycles
cpu0_L1D TOTAL     ACCESS:    5915455  HIT:    3964882  MISS:    1950573
cpu0_L1D LOAD      ACCESS:    1404223  HIT:    1108674  MISS:     295549
cpu0_L1D RFO       ACCESS:    4493703  HIT:    2838688  MISS:    1655015
cpu0_L1D PREFETCH  ACCESS:          0  HIT:          0  MISS:          0
cpu0_L1D WRITEBACK ACCESS:          0  HIT:          0  MISS:          0
cpu0_L1D TRANSLATION ACCESS:      17529  HIT:      17520  MISS:          9
cpu0_L1D PREFETCH  REQUESTED:          0  ISSUED:          0  USEFUL:          0  USELESS:          0
cpu0_L1D AVERAGE MISS LATENCY: 756.183 cycles
cpu0_L2C TOTAL     ACCESS:    3606067  HIT:    2397420  MISS:    1208647
cpu0_L2C LOAD      ACCESS:     295549  HIT:          1  MISS:     295548
cpu0_L2C RFO       ACCESS:    1655015  HIT:     742404  MISS:     912611
cpu0_L2C PREFETCH  ACCESS:        453  HIT:         29  MISS:        424
cpu0_L2C WRITEBACK ACCESS:    1655041  HIT:    1654986  MISS:         55
cpu0_L2C TRANSLATION ACCESS:          9  HIT:          0  MISS:          9
cpu0_L2C PREFETCH  REQUESTED:        792  ISSUED:        745  USEFUL:         27  USELESS:        400
cpu0_L2C AVERAGE MISS LATENCY: 1203.08 cycles
LLC TOTAL     ACCESS:    2121185  HIT:     938418  MISS:    1182767
LLC LOAD      ACCESS:     295548  HIT:          2  MISS:     295546
LLC RFO       ACCESS:     912564  HIT:      25981  MISS:     886583
LLC PREFETCH  ACCESS:        601  HIT:         17  MISS:        584
LLC WRITEBACK ACCESS:     912463  HIT:     912418  MISS:         45
LLC TRANSLATION ACCESS:          9  HIT:          0  MISS:          9
LLC PREFETCH  REQUESTED:          0  ISSUED:          0  USEFUL:          0  USELESS:          0
LLC AVERAGE MISS LATENCY: 1208.18 cycles

DRAM Statistics
 CHANNEL 0
 RQ ROW_BUFFER_HIT:      36728  ROW_BUFFER_MISS:    1145994
 DBUS AVG_CONGESTED_CYCLE:    4.00302
 WQ ROW_BUFFER_HIT:      17573  ROW_BUFFER_MISS:     868813  FULL:          0


CPU 0 Branch Prediction Accuracy: 95.9842% MPKI: 0.71772 Average ROB Occupancy at Mispredict: 258.924
Branch type MPKI
BRANCH_DIRECT_JUMP: 0
BRANCH_INDIRECT: 0
BRANCH_CONDITIONAL: 0.71772
BRANCH_DIRECT_CALL: 0
BRANCH_INDIRECT_CALL: 0
BRANCH_RETURN: 0
