./bin/champsim --warmup_instructions=25000000 --simulation_instructions=25000000 ./traces/619.lbm_s-2677B.champsimtrace.xz 

*** ChampSim Multicore Out-of-Order Simulator ***

Warmup Instructions: 25000000
Simulation Instructions: 25000000
Number of CPUs: 1
Off-chip DRAM Size: 4 GiB Channels: 1 Width: 64-bit Data Rate: 3200 MT/s

VirtualMemory physical capacity: 8588881920 num_ppages: 2096895
VirtualMemory page size: 4096 log2_page_size: 12

CPU 0 runs ./traces/619.lbm_s-2677B.champsimtrace.xz
CPU 0 Bimodal branch predictor
Basic BTB sets: 1024 ways: 8 indirect buffer size: 4096 RAS size: 64
cpu0_L2C Stream Plus Stride Prefetcher 3 4
WARNING: The extended signature CACHE::prefetch_line(ip, base_addr, pf_addr, fill_this_level, prefetch_metadata) is deprecated.
WARNING: Use CACHE::prefetch_line(pf_addr, fill_this_level, prefetch_metadata) instead.
Heartbeat CPU 0 instructions: 10000003 cycles: 2593003 heartbeat IPC: 3.85653 cumulative IPC: 3.85653 (Simulation time: 0 hr 0 min 44 sec) 
Heartbeat CPU 0 instructions: 20000001 cycles: 5181457 heartbeat IPC: 3.86331 cumulative IPC: 3.85992 (Simulation time: 0 hr 1 min 34 sec) 

Warmup complete CPU 0 instructions: 25000001 cycles: 6475705 (Simulation time: 0 hr 2 min 2 sec) 

Heartbeat CPU 0 instructions: 30000002 cycles: 29889761 heartbeat IPC: 0.404722 cumulative IPC: 0.213547 (Simulation time: 0 hr 4 min 51 sec) 
Heartbeat CPU 0 instructions: 40000004 cycles: 76622371 heartbeat IPC: 0.213983 cumulative IPC: 0.213838 (Simulation time: 0 hr 8 min 43 sec) 
Heartbeat CPU 0 instructions: 50000001 cycles: 124470093 heartbeat IPC: 0.208996 cumulative IPC: 0.211874 (Simulation time: 0 hr 11 min 48 sec) 
Finished CPU 0 instructions: 25000000 cycles: 117994388 cumulative IPC: 0.211874 (Simulation time: 0 hr 11 min 48 sec) 

ChampSim completed all CPUs

Region of Interest Statistics

CPU 0 cumulative IPC: 0.211874 instructions: 25000000 cycles: 117994388
cpu0_DTLB TOTAL     ACCESS:    4450292  HIT:    4416245  MISS:      34047
cpu0_DTLB LOAD      ACCESS:    1980453  HIT:    1975832  MISS:       4621
cpu0_DTLB RFO       ACCESS:    2469839  HIT:    2440413  MISS:      29426
cpu0_DTLB PREFETCH  ACCESS:          0  HIT:          0  MISS:          0
cpu0_DTLB WRITEBACK ACCESS:          0  HIT:          0  MISS:          0
cpu0_DTLB TRANSLATION ACCESS:          0  HIT:          0  MISS:          0
cpu0_DTLB PREFETCH  REQUESTED:          0  ISSUED:          0  USEFUL:          0  USELESS:          0
cpu0_DTLB AVERAGE MISS LATENCY: 519.057 cycles
cpu0_ITLB TOTAL     ACCESS:     472316  HIT:     472316  MISS:          0
cpu0_ITLB LOAD      ACCESS:     472316  HIT:     472316  MISS:          0
cpu0_ITLB RFO       ACCESS:          0  HIT:          0  MISS:          0
cpu0_ITLB PREFETCH  ACCESS:          0  HIT:          0  MISS:          0
cpu0_ITLB WRITEBACK ACCESS:          0  HIT:          0  MISS:          0
cpu0_ITLB TRANSLATION ACCESS:          0  HIT:          0  MISS:          0
cpu0_ITLB PREFETCH  REQUESTED:          0  ISSUED:          0  USEFUL:          0  USELESS:          0
cpu0_ITLB AVERAGE MISS LATENCY: -nan cycles
cpu0_L1I TOTAL     ACCESS:     551650  HIT:     551650  MISS:          0
cpu0_L1I LOAD      ACCESS:     551650  HIT:     551650  MISS:          0
cpu0_L1I RFO       ACCESS:          0  HIT:          0  MISS:          0
cpu0_L1I PREFETCH  ACCESS:          0  HIT:          0  MISS:          0
cpu0_L1I WRITEBACK ACCESS:          0  HIT:          0  MISS:          0
cpu0_L1I TRANSLATION ACCESS:          0  HIT:          0  MISS:          0
cpu0_L1I PREFETCH  REQUESTED:          0  ISSUED:          0  USEFUL:          0  USELESS:          0
cpu0_L1I AVERAGE MISS LATENCY: -nan cycles
cpu0_STLB TOTAL     ACCESS:      34047  HIT:      15571  MISS:      18476
cpu0_STLB LOAD      ACCESS:       4621  HIT:          0  MISS:       4621
cpu0_STLB RFO       ACCESS:      29426  HIT:      15571  MISS:      13855
cpu0_STLB PREFETCH  ACCESS:          0  HIT:          0  MISS:          0
cpu0_STLB WRITEBACK ACCESS:          0  HIT:          0  MISS:          0
cpu0_STLB TRANSLATION ACCESS:          0  HIT:          0  MISS:          0
cpu0_STLB PREFETCH  REQUESTED:          0  ISSUED:          0  USEFUL:          0  USELESS:          0
cpu0_STLB AVERAGE MISS LATENCY: 939.774 cycles
cpu0_L1D TOTAL     ACCESS:    5918648  HIT:    3968077  MISS:    1950571
cpu0_L1D LOAD      ACCESS:    1405247  HIT:    1109697  MISS:     295550
cpu0_L1D RFO       ACCESS:    4495871  HIT:    2840859  MISS:    1655012
cpu0_L1D PREFETCH  ACCESS:          0  HIT:          0  MISS:          0
cpu0_L1D WRITEBACK ACCESS:          0  HIT:          0  MISS:          0
cpu0_L1D TRANSLATION ACCESS:      17530  HIT:      17521  MISS:          9
cpu0_L1D PREFETCH  REQUESTED:          0  ISSUED:          0  USEFUL:          0  USELESS:          0
cpu0_L1D AVERAGE MISS LATENCY: 755.679 cycles
cpu0_L2C TOTAL     ACCESS:    3606020  HIT:    2396879  MISS:    1209141
cpu0_L2C LOAD      ACCESS:     295550  HIT:          2  MISS:     295548
cpu0_L2C RFO       ACCESS:    1655012  HIT:     741869  MISS:     913143
cpu0_L2C PREFETCH  ACCESS:        410  HIT:         24  MISS:        386
cpu0_L2C WRITEBACK ACCESS:    1655039  HIT:    1654984  MISS:         55
cpu0_L2C TRANSLATION ACCESS:          9  HIT:          0  MISS:          9
cpu0_L2C PREFETCH  REQUESTED:        718  ISSUED:        683  USEFUL:         24  USELESS:        364
cpu0_L2C AVERAGE MISS LATENCY: 1201.73 cycles
LLC TOTAL     ACCESS:    2122302  HIT:     939589  MISS:    1182713
LLC LOAD      ACCESS:     295548  HIT:          0  MISS:     295548
LLC RFO       ACCESS:     913107  HIT:      26528  MISS:     886579
LLC PREFETCH  ACCESS:        548  HIT:         17  MISS:        531
LLC WRITEBACK ACCESS:     913090  HIT:     913044  MISS:         46
LLC TRANSLATION ACCESS:          9  HIT:          0  MISS:          9
LLC PREFETCH  REQUESTED:          0  ISSUED:          0  USEFUL:          0  USELESS:          0
LLC AVERAGE MISS LATENCY: 1207.37 cycles

DRAM Statistics
 CHANNEL 0
 RQ ROW_BUFFER_HIT:      36477  ROW_BUFFER_MISS:    1146190
 DBUS AVG_CONGESTED_CYCLE:    4.00292
 WQ ROW_BUFFER_HIT:      17697  ROW_BUFFER_MISS:     868738  FULL:          0


CPU 0 Branch Prediction Accuracy: 95.9842% MPKI: 0.71772 Average ROB Occupancy at Mispredict: 259.035
Branch type MPKI
BRANCH_DIRECT_JUMP: 0
BRANCH_INDIRECT: 0
BRANCH_CONDITIONAL: 0.71772
BRANCH_DIRECT_CALL: 0
BRANCH_INDIRECT_CALL: 0
BRANCH_RETURN: 0
