./bin/champsim --warmup_instructions=25000000 --simulation_instructions=25000000 ./traces/619.lbm_s-2677B.champsimtrace.xz 

*** ChampSim Multicore Out-of-Order Simulator ***

Warmup Instructions: 25000000
Simulation Instructions: 25000000
Number of CPUs: 1
Off-chip DRAM Size: 4 GiB Channels: 1 Width: 64-bit Data Rate: 3200 MT/s

VirtualMemory physical capacity: 8588881920 num_ppages: 2096895
VirtualMemory page size: 4096 log2_page_size: 12

CPU 0 runs ./traces/619.lbm_s-2677B.champsimtrace.xz
CPU 0 Bimodal branch predictor
Basic BTB sets: 1024 ways: 8 indirect buffer size: 4096 RAS size: 64
cpu0_L2C Stream Plus Stride Prefetcher 2 64
WARNING: The extended signature CACHE::prefetch_line(ip, base_addr, pf_addr, fill_this_level, prefetch_metadata) is deprecated.
WARNING: Use CACHE::prefetch_line(pf_addr, fill_this_level, prefetch_metadata) instead.
Heartbeat CPU 0 instructions: 10000003 cycles: 2593076 heartbeat IPC: 3.85643 cumulative IPC: 3.85643 (Simulation time: 0 hr 0 min 42 sec) 
Heartbeat CPU 0 instructions: 20000001 cycles: 5181569 heartbeat IPC: 3.86325 cumulative IPC: 3.85983 (Simulation time: 0 hr 1 min 32 sec) 

Warmup complete CPU 0 instructions: 25000001 cycles: 6475822 (Simulation time: 0 hr 1 min 59 sec) 

Heartbeat CPU 0 instructions: 30000002 cycles: 29842474 heartbeat IPC: 0.4055 cumulative IPC: 0.21398 (Simulation time: 0 hr 4 min 40 sec) 
Heartbeat CPU 0 instructions: 40000004 cycles: 76499367 heartbeat IPC: 0.214331 cumulative IPC: 0.214214 (Simulation time: 0 hr 8 min 30 sec) 
Heartbeat CPU 0 instructions: 50000001 cycles: 124343363 heartbeat IPC: 0.209013 cumulative IPC: 0.212103 (Simulation time: 0 hr 11 min 39 sec) 
Finished CPU 0 instructions: 25000000 cycles: 117867541 cumulative IPC: 0.212102 (Simulation time: 0 hr 11 min 39 sec) 

ChampSim completed all CPUs

Region of Interest Statistics

CPU 0 cumulative IPC: 0.212102 instructions: 25000000 cycles: 117867541
cpu0_DTLB TOTAL     ACCESS:    4449768  HIT:    4415721  MISS:      34047
cpu0_DTLB LOAD      ACCESS:    1979725  HIT:    1975104  MISS:       4621
cpu0_DTLB RFO       ACCESS:    2470043  HIT:    2440617  MISS:      29426
cpu0_DTLB PREFETCH  ACCESS:          0  HIT:          0  MISS:          0
cpu0_DTLB WRITEBACK ACCESS:          0  HIT:          0  MISS:          0
cpu0_DTLB TRANSLATION ACCESS:          0  HIT:          0  MISS:          0
cpu0_DTLB PREFETCH  REQUESTED:          0  ISSUED:          0  USEFUL:          0  USELESS:          0
cpu0_DTLB AVERAGE MISS LATENCY: 515.464 cycles
cpu0_ITLB TOTAL     ACCESS:     472469  HIT:     472469  MISS:          0
cpu0_ITLB LOAD      ACCESS:     472469  HIT:     472469  MISS:          0
cpu0_ITLB RFO       ACCESS:          0  HIT:          0  MISS:          0
cpu0_ITLB PREFETCH  ACCESS:          0  HIT:          0  MISS:          0
cpu0_ITLB WRITEBACK ACCESS:          0  HIT:          0  MISS:          0
cpu0_ITLB TRANSLATION ACCESS:          0  HIT:          0  MISS:          0
cpu0_ITLB PREFETCH  REQUESTED:          0  ISSUED:          0  USEFUL:          0  USELESS:          0
cpu0_ITLB AVERAGE MISS LATENCY: -nan cycles
cpu0_L1I TOTAL     ACCESS:     551486  HIT:     551486  MISS:          0
cpu0_L1I LOAD      ACCESS:     551486  HIT:     551486  MISS:          0
cpu0_L1I RFO       ACCESS:          0  HIT:          0  MISS:          0
cpu0_L1I PREFETCH  ACCESS:          0  HIT:          0  MISS:          0
cpu0_L1I WRITEBACK ACCESS:          0  HIT:          0  MISS:          0
cpu0_L1I TRANSLATION ACCESS:          0  HIT:          0  MISS:          0
cpu0_L1I PREFETCH  REQUESTED:          0  ISSUED:          0  USEFUL:          0  USELESS:          0
cpu0_L1I AVERAGE MISS LATENCY: -nan cycles
cpu0_STLB TOTAL     ACCESS:      34047  HIT:      15571  MISS:      18476
cpu0_STLB LOAD      ACCESS:       4621  HIT:          0  MISS:       4621
cpu0_STLB RFO       ACCESS:      29426  HIT:      15571  MISS:      13855
cpu0_STLB PREFETCH  ACCESS:          0  HIT:          0  MISS:          0
cpu0_STLB WRITEBACK ACCESS:          0  HIT:          0  MISS:          0
cpu0_STLB TRANSLATION ACCESS:          0  HIT:          0  MISS:          0
cpu0_STLB PREFETCH  REQUESTED:          0  ISSUED:          0  USEFUL:          0  USELESS:          0
cpu0_STLB AVERAGE MISS LATENCY: 933.151 cycles
cpu0_L1D TOTAL     ACCESS:    5916279  HIT:    3965712  MISS:    1950567
cpu0_L1D LOAD      ACCESS:    1404966  HIT:    1109417  MISS:     295549
cpu0_L1D RFO       ACCESS:    4493791  HIT:    2838782  MISS:    1655009
cpu0_L1D PREFETCH  ACCESS:          0  HIT:          0  MISS:          0
cpu0_L1D WRITEBACK ACCESS:          0  HIT:          0  MISS:          0
cpu0_L1D TRANSLATION ACCESS:      17522  HIT:      17513  MISS:          9
cpu0_L1D PREFETCH  REQUESTED:          0  ISSUED:          0  USEFUL:          0  USELESS:          0
cpu0_L1D AVERAGE MISS LATENCY: 755.265 cycles
cpu0_L2C TOTAL     ACCESS:    3605939  HIT:    2396408  MISS:    1209531
cpu0_L2C LOAD      ACCESS:     295549  HIT:          4  MISS:     295545
cpu0_L2C RFO       ACCESS:    1655009  HIT:     741415  MISS:     913594
cpu0_L2C PREFETCH  ACCESS:        335  HIT:          6  MISS:        329
cpu0_L2C WRITEBACK ACCESS:    1655037  HIT:    1654983  MISS:         54
cpu0_L2C TRANSLATION ACCESS:          9  HIT:          0  MISS:          9
cpu0_L2C PREFETCH  REQUESTED:        561  ISSUED:        550  USEFUL:          4  USELESS:        328
cpu0_L2C AVERAGE MISS LATENCY: 1200.59 cycles
LLC TOTAL     ACCESS:    2123099  HIT:     940426  MISS:    1182673
LLC LOAD      ACCESS:     295545  HIT:          0  MISS:     295545
LLC RFO       ACCESS:     913543  HIT:      26965  MISS:     886578
LLC PREFETCH  ACCESS:        501  HIT:          5  MISS:        496
LLC WRITEBACK ACCESS:     913501  HIT:     913456  MISS:         45
LLC TRANSLATION ACCESS:          9  HIT:          0  MISS:          9
LLC PREFETCH  REQUESTED:          0  ISSUED:          0  USEFUL:          0  USELESS:          0
LLC AVERAGE MISS LATENCY: 1206.64 cycles

DRAM Statistics
 CHANNEL 0
 RQ ROW_BUFFER_HIT:      36804  ROW_BUFFER_MISS:    1145824
 DBUS AVG_CONGESTED_CYCLE:    4.00301
 WQ ROW_BUFFER_HIT:      17902  ROW_BUFFER_MISS:     868520  FULL:          0


CPU 0 Branch Prediction Accuracy: 95.9842% MPKI: 0.71772 Average ROB Occupancy at Mispredict: 259.038
Branch type MPKI
BRANCH_DIRECT_JUMP: 0
BRANCH_INDIRECT: 0
BRANCH_CONDITIONAL: 0.71772
BRANCH_DIRECT_CALL: 0
BRANCH_INDIRECT_CALL: 0
BRANCH_RETURN: 0
