./bin/champsim --warmup_instructions=25000000 --simulation_instructions=25000000 ./traces/bc-0.trace.gz 

*** ChampSim Multicore Out-of-Order Simulator ***

Warmup Instructions: 25000000
Simulation Instructions: 25000000
Number of CPUs: 1
Off-chip DRAM Size: 4 GiB Channels: 1 Width: 64-bit Data Rate: 3200 MT/s

VirtualMemory physical capacity: 8588881920 num_ppages: 2096895
VirtualMemory page size: 4096 log2_page_size: 12

CPU 0 runs ./traces/bc-0.trace.gz
CPU 0 Bimodal branch predictor
Basic BTB sets: 1024 ways: 8 indirect buffer size: 4096 RAS size: 64
cpu0_L2C Stream Plus Stride Prefetcher 2 4
WARNING: The extended signature CACHE::prefetch_line(ip, base_addr, pf_addr, fill_this_level, prefetch_metadata) is deprecated.
WARNING: Use CACHE::prefetch_line(pf_addr, fill_this_level, prefetch_metadata) instead.
Heartbeat CPU 0 instructions: 10000002 cycles: 3203425 heartbeat IPC: 3.12166 cumulative IPC: 3.12166 (Simulation time: 0 hr 1 min 1 sec) 
Heartbeat CPU 0 instructions: 20000002 cycles: 5712250 heartbeat IPC: 3.98593 cumulative IPC: 3.50125 (Simulation time: 0 hr 1 min 49 sec) 

Warmup complete CPU 0 instructions: 25000003 cycles: 6963683 (Simulation time: 0 hr 2 min 12 sec) 

Heartbeat CPU 0 instructions: 30000001 cycles: 42987619 heartbeat IPC: 0.268274 cumulative IPC: 0.138797 (Simulation time: 0 hr 3 min 9 sec) 
Heartbeat CPU 0 instructions: 40000002 cycles: 116663496 heartbeat IPC: 0.13573 cumulative IPC: 0.136737 (Simulation time: 0 hr 5 min 5 sec) 
Heartbeat CPU 0 instructions: 50000002 cycles: 190297404 heartbeat IPC: 0.135807 cumulative IPC: 0.136363 (Simulation time: 0 hr 6 min 51 sec) 
Finished CPU 0 instructions: 25000004 cycles: 183333722 cumulative IPC: 0.136363 (Simulation time: 0 hr 6 min 51 sec) 

ChampSim completed all CPUs

Region of Interest Statistics

CPU 0 cumulative IPC: 0.136363 instructions: 25000004 cycles: 183333722
cpu0_DTLB TOTAL     ACCESS:    5781858  HIT:    5048076  MISS:     733782
cpu0_DTLB LOAD      ACCESS:    4554326  HIT:    4076332  MISS:     477994
cpu0_DTLB RFO       ACCESS:    1227532  HIT:     971744  MISS:     255788
cpu0_DTLB PREFETCH  ACCESS:          0  HIT:          0  MISS:          0
cpu0_DTLB WRITEBACK ACCESS:          0  HIT:          0  MISS:          0
cpu0_DTLB TRANSLATION ACCESS:          0  HIT:          0  MISS:          0
cpu0_DTLB PREFETCH  REQUESTED:          0  ISSUED:          0  USEFUL:          0  USELESS:          0
cpu0_DTLB AVERAGE MISS LATENCY: 13.8939 cycles
cpu0_ITLB TOTAL     ACCESS:    3107161  HIT:    3107161  MISS:          0
cpu0_ITLB LOAD      ACCESS:    3107161  HIT:    3107161  MISS:          0
cpu0_ITLB RFO       ACCESS:          0  HIT:          0  MISS:          0
cpu0_ITLB PREFETCH  ACCESS:          0  HIT:          0  MISS:          0
cpu0_ITLB WRITEBACK ACCESS:          0  HIT:          0  MISS:          0
cpu0_ITLB TRANSLATION ACCESS:          0  HIT:          0  MISS:          0
cpu0_ITLB PREFETCH  REQUESTED:          0  ISSUED:          0  USEFUL:          0  USELESS:          0
cpu0_ITLB AVERAGE MISS LATENCY: -nan cycles
cpu0_L1I TOTAL     ACCESS:         86  HIT:         86  MISS:          0
cpu0_L1I LOAD      ACCESS:         86  HIT:         86  MISS:          0
cpu0_L1I RFO       ACCESS:          0  HIT:          0  MISS:          0
cpu0_L1I PREFETCH  ACCESS:          0  HIT:          0  MISS:          0
cpu0_L1I WRITEBACK ACCESS:          0  HIT:          0  MISS:          0
cpu0_L1I TRANSLATION ACCESS:          0  HIT:          0  MISS:          0
cpu0_L1I PREFETCH  REQUESTED:          0  ISSUED:          0  USEFUL:          0  USELESS:          0
cpu0_L1I AVERAGE MISS LATENCY: -nan cycles
cpu0_STLB TOTAL     ACCESS:     733782  HIT:     397124  MISS:     336658
cpu0_STLB LOAD      ACCESS:     477994  HIT:     310200  MISS:     167794
cpu0_STLB RFO       ACCESS:     255788  HIT:      86924  MISS:     168864
cpu0_STLB PREFETCH  ACCESS:          0  HIT:          0  MISS:          0
cpu0_STLB WRITEBACK ACCESS:          0  HIT:          0  MISS:          0
cpu0_STLB TRANSLATION ACCESS:          0  HIT:          0  MISS:          0
cpu0_STLB PREFETCH  REQUESTED:          0  ISSUED:          0  USEFUL:          0  USELESS:          0
cpu0_STLB AVERAGE MISS LATENCY: 10.4816 cycles
cpu0_L1D TOTAL     ACCESS:    6847819  HIT:    4761119  MISS:    2086700
cpu0_L1D LOAD      ACCESS:    5221756  HIT:    3147482  MISS:    2074274
cpu0_L1D RFO       ACCESS:    1298980  HIT:    1287948  MISS:      11032
cpu0_L1D PREFETCH  ACCESS:          0  HIT:          0  MISS:          0
cpu0_L1D WRITEBACK ACCESS:          0  HIT:          0  MISS:          0
cpu0_L1D TRANSLATION ACCESS:     327083  HIT:     325689  MISS:       1394
cpu0_L1D PREFETCH  REQUESTED:          0  ISSUED:          0  USEFUL:          0  USELESS:          0
cpu0_L1D AVERAGE MISS LATENCY: 164.655 cycles
cpu0_L2C TOTAL     ACCESS:    2810754  HIT:     938153  MISS:    1872601
cpu0_L2C LOAD      ACCESS:    2074274  HIT:     229775  MISS:    1844499
cpu0_L2C RFO       ACCESS:      11032  HIT:        130  MISS:      10902
cpu0_L2C PREFETCH  ACCESS:      75233  HIT:      58090  MISS:      17143
cpu0_L2C WRITEBACK ACCESS:     648821  HIT:     648808  MISS:         13
cpu0_L2C TRANSLATION ACCESS:       1394  HIT:       1350  MISS:         44
cpu0_L2C PREFETCH  REQUESTED:      79443  ISSUED:      76568  USEFUL:       7004  USELESS:      10177
cpu0_L2C AVERAGE MISS LATENCY: 173.531 cycles
LLC TOTAL     ACCESS:    2506461  HIT:    1269502  MISS:    1236959
LLC LOAD      ACCESS:    1844499  HIT:     633857  MISS:    1210642
LLC RFO       ACCESS:      10902  HIT:        514  MISS:      10388
LLC PREFETCH  ACCESS:      17191  HIT:       1384  MISS:      15807
LLC WRITEBACK ACCESS:     633825  HIT:     633736  MISS:         89
LLC TRANSLATION ACCESS:         44  HIT:         11  MISS:         33
LLC PREFETCH  REQUESTED:          0  ISSUED:          0  USEFUL:          0  USELESS:          0
LLC AVERAGE MISS LATENCY: 230.945 cycles

DRAM Statistics
 CHANNEL 0
 RQ ROW_BUFFER_HIT:      54435  ROW_BUFFER_MISS:    1181836
 DBUS AVG_CONGESTED_CYCLE:    3.95737
 WQ ROW_BUFFER_HIT:       1058  ROW_BUFFER_MISS:     535912  FULL:          0


CPU 0 Branch Prediction Accuracy: 81.1279% MPKI: 35.6282 Average ROB Occupancy at Mispredict: 22.4784
Branch type MPKI
BRANCH_DIRECT_JUMP: 0
BRANCH_INDIRECT: 0
BRANCH_CONDITIONAL: 35.6282
BRANCH_DIRECT_CALL: 0
BRANCH_INDIRECT_CALL: 0
BRANCH_RETURN: 0