./bin/champsim --warmup_instructions=25000000 --simulation_instructions=25000000 ./traces/bc-0.trace.gz 

*** ChampSim Multicore Out-of-Order Simulator ***

Warmup Instructions: 25000000
Simulation Instructions: 25000000
Number of CPUs: 1
Off-chip DRAM Size: 4 GiB Channels: 1 Width: 64-bit Data Rate: 3200 MT/s

VirtualMemory physical capacity: 8588881920 num_ppages: 2096895
VirtualMemory page size: 4096 log2_page_size: 12

CPU 0 runs ./traces/bc-0.trace.gz
CPU 0 Bimodal branch predictor
Basic BTB sets: 1024 ways: 8 indirect buffer size: 4096 RAS size: 64
cpu0_L2C Stream Plus Stride Prefetcher 2 64
WARNING: The extended signature CACHE::prefetch_line(ip, base_addr, pf_addr, fill_this_level, prefetch_metadata) is deprecated.
WARNING: Use CACHE::prefetch_line(pf_addr, fill_this_level, prefetch_metadata) instead.
Heartbeat CPU 0 instructions: 10000002 cycles: 3203425 heartbeat IPC: 3.12166 cumulative IPC: 3.12166 (Simulation time: 0 hr 1 min 4 sec) 
Heartbeat CPU 0 instructions: 20000001 cycles: 5712249 heartbeat IPC: 3.98593 cumulative IPC: 3.50125 (Simulation time: 0 hr 1 min 49 sec) 

Warmup complete CPU 0 instructions: 25000001 cycles: 6963682 (Simulation time: 0 hr 2 min 12 sec) 

Heartbeat CPU 0 instructions: 30000001 cycles: 43250998 heartbeat IPC: 0.266391 cumulative IPC: 0.137789 (Simulation time: 0 hr 3 min 27 sec) 
Heartbeat CPU 0 instructions: 40000002 cycles: 117732181 heartbeat IPC: 0.134262 cumulative IPC: 0.135418 (Simulation time: 0 hr 5 min 23 sec) 
Heartbeat CPU 0 instructions: 50000002 cycles: 192180384 heartbeat IPC: 0.134322 cumulative IPC: 0.134977 (Simulation time: 0 hr 7 min 8 sec) 
Finished CPU 0 instructions: 25000001 cycles: 185216702 cumulative IPC: 0.134977 (Simulation time: 0 hr 7 min 8 sec) 

ChampSim completed all CPUs

Region of Interest Statistics

CPU 0 cumulative IPC: 0.134977 instructions: 25000001 cycles: 185216702
cpu0_DTLB TOTAL     ACCESS:    5781892  HIT:    5048110  MISS:     733782
cpu0_DTLB LOAD      ACCESS:    4554354  HIT:    4076368  MISS:     477986
cpu0_DTLB RFO       ACCESS:    1227538  HIT:     971742  MISS:     255796
cpu0_DTLB PREFETCH  ACCESS:          0  HIT:          0  MISS:          0
cpu0_DTLB WRITEBACK ACCESS:          0  HIT:          0  MISS:          0
cpu0_DTLB TRANSLATION ACCESS:          0  HIT:          0  MISS:          0
cpu0_DTLB PREFETCH  REQUESTED:          0  ISSUED:          0  USEFUL:          0  USELESS:          0
cpu0_DTLB AVERAGE MISS LATENCY: 13.8748 cycles
cpu0_ITLB TOTAL     ACCESS:    3107161  HIT:    3107161  MISS:          0
cpu0_ITLB LOAD      ACCESS:    3107161  HIT:    3107161  MISS:          0
cpu0_ITLB RFO       ACCESS:          0  HIT:          0  MISS:          0
cpu0_ITLB PREFETCH  ACCESS:          0  HIT:          0  MISS:          0
cpu0_ITLB WRITEBACK ACCESS:          0  HIT:          0  MISS:          0
cpu0_ITLB TRANSLATION ACCESS:          0  HIT:          0  MISS:          0
cpu0_ITLB PREFETCH  REQUESTED:          0  ISSUED:          0  USEFUL:          0  USELESS:          0
cpu0_ITLB AVERAGE MISS LATENCY: -nan cycles
cpu0_L1I TOTAL     ACCESS:         86  HIT:         86  MISS:          0
cpu0_L1I LOAD      ACCESS:         86  HIT:         86  MISS:          0
cpu0_L1I RFO       ACCESS:          0  HIT:          0  MISS:          0
cpu0_L1I PREFETCH  ACCESS:          0  HIT:          0  MISS:          0
cpu0_L1I WRITEBACK ACCESS:          0  HIT:          0  MISS:          0
cpu0_L1I TRANSLATION ACCESS:          0  HIT:          0  MISS:          0
cpu0_L1I PREFETCH  REQUESTED:          0  ISSUED:          0  USEFUL:          0  USELESS:          0
cpu0_L1I AVERAGE MISS LATENCY: -nan cycles
cpu0_STLB TOTAL     ACCESS:     733782  HIT:     397124  MISS:     336658
cpu0_STLB LOAD      ACCESS:     477986  HIT:     310197  MISS:     167789
cpu0_STLB RFO       ACCESS:     255796  HIT:      86927  MISS:     168869
cpu0_STLB PREFETCH  ACCESS:          0  HIT:          0  MISS:          0
cpu0_STLB WRITEBACK ACCESS:          0  HIT:          0  MISS:          0
cpu0_STLB TRANSLATION ACCESS:          0  HIT:          0  MISS:          0
cpu0_STLB PREFETCH  REQUESTED:          0  ISSUED:          0  USEFUL:          0  USELESS:          0
cpu0_STLB AVERAGE MISS LATENCY: 10.44 cycles
cpu0_L1D TOTAL     ACCESS:    6848034  HIT:    4761334  MISS:    2086700
cpu0_L1D LOAD      ACCESS:    5221886  HIT:    3147612  MISS:    2074274
cpu0_L1D RFO       ACCESS:    1299062  HIT:    1288030  MISS:      11032
cpu0_L1D PREFETCH  ACCESS:          0  HIT:          0  MISS:          0
cpu0_L1D WRITEBACK ACCESS:          0  HIT:          0  MISS:          0
cpu0_L1D TRANSLATION ACCESS:     327086  HIT:     325692  MISS:       1394
cpu0_L1D PREFETCH  REQUESTED:          0  ISSUED:          0  USEFUL:          0  USELESS:          0
cpu0_L1D AVERAGE MISS LATENCY: 166.937 cycles
cpu0_L2C TOTAL     ACCESS:    2885911  HIT:     977041  MISS:    1908870
cpu0_L2C LOAD      ACCESS:    2074274  HIT:     226841  MISS:    1847433
cpu0_L2C RFO       ACCESS:      11032  HIT:        121  MISS:      10911
cpu0_L2C PREFETCH  ACCESS:     150389  HIT:      99921  MISS:      50468
cpu0_L2C WRITEBACK ACCESS:     648822  HIT:     648809  MISS:         13
cpu0_L2C TRANSLATION ACCESS:       1394  HIT:       1349  MISS:         45
cpu0_L2C PREFETCH  REQUESTED:     159069  ISSUED:     153135  USEFUL:      11609  USELESS:      39008
cpu0_L2C AVERAGE MISS LATENCY: 177.684 cycles
LLC TOTAL     ACCESS:    2542924  HIT:    1261719  MISS:    1281205
LLC LOAD      ACCESS:    1847433  HIT:     623751  MISS:    1223682
LLC RFO       ACCESS:      10911  HIT:        518  MISS:      10393
LLC PREFETCH  ACCESS:      50481  HIT:       3470  MISS:      47011
LLC WRITEBACK ACCESS:     634054  HIT:     633969  MISS:         85
LLC TRANSLATION ACCESS:         45  HIT:         11  MISS:         34
LLC PREFETCH  REQUESTED:          0  ISSUED:          0  USEFUL:          0  USELESS:          0
LLC AVERAGE MISS LATENCY: 233.457 cycles

DRAM Statistics
 CHANNEL 0
 RQ ROW_BUFFER_HIT:      55762  ROW_BUFFER_MISS:    1224754
 DBUS AVG_CONGESTED_CYCLE:    3.95652
 WQ ROW_BUFFER_HIT:        993  ROW_BUFFER_MISS:     538754  FULL:          0


CPU 0 Branch Prediction Accuracy: 81.1279% MPKI: 35.6282 Average ROB Occupancy at Mispredict: 22.3883
Branch type MPKI
BRANCH_DIRECT_JUMP: 0
BRANCH_INDIRECT: 0
BRANCH_CONDITIONAL: 35.6282
BRANCH_DIRECT_CALL: 0
BRANCH_INDIRECT_CALL: 0
BRANCH_RETURN: 0
