./bin/champsim --warmup_instructions=25000000 --simulation_instructions=25000000 ./traces/bc-0.trace.gz 

*** ChampSim Multicore Out-of-Order Simulator ***

Warmup Instructions: 25000000
Simulation Instructions: 25000000
Number of CPUs: 1
Off-chip DRAM Size: 4 GiB Channels: 1 Width: 64-bit Data Rate: 3200 MT/s

VirtualMemory physical capacity: 8588881920 num_ppages: 2096895
VirtualMemory page size: 4096 log2_page_size: 12

CPU 0 runs ./traces/bc-0.trace.gz
CPU 0 Bimodal branch predictor
Basic BTB sets: 1024 ways: 8 indirect buffer size: 4096 RAS size: 64
cpu0_L2C Stream Plus Stride Prefetcher 1 16
WARNING: The extended signature CACHE::prefetch_line(ip, base_addr, pf_addr, fill_this_level, prefetch_metadata) is deprecated.
WARNING: Use CACHE::prefetch_line(pf_addr, fill_this_level, prefetch_metadata) instead.
Heartbeat CPU 0 instructions: 10000002 cycles: 3203427 heartbeat IPC: 3.12166 cumulative IPC: 3.12166 (Simulation time: 0 hr 0 min 58 sec) 
Heartbeat CPU 0 instructions: 20000001 cycles: 5712252 heartbeat IPC: 3.98593 cumulative IPC: 3.50125 (Simulation time: 0 hr 1 min 42 sec) 

Warmup complete CPU 0 instructions: 25000001 cycles: 6963685 (Simulation time: 0 hr 2 min 1 sec) 

Heartbeat CPU 0 instructions: 30000001 cycles: 43189286 heartbeat IPC: 0.26683 cumulative IPC: 0.138024 (Simulation time: 0 hr 3 min 11 sec) 
Heartbeat CPU 0 instructions: 40000002 cycles: 117442824 heartbeat IPC: 0.134674 cumulative IPC: 0.135772 (Simulation time: 0 hr 5 min 45 sec) 
Heartbeat CPU 0 instructions: 50000002 cycles: 191687836 heartbeat IPC: 0.134689 cumulative IPC: 0.135337 (Simulation time: 0 hr 7 min 20 sec) 
Finished CPU 0 instructions: 25000001 cycles: 184724151 cumulative IPC: 0.135337 (Simulation time: 0 hr 7 min 20 sec) 

ChampSim completed all CPUs

Region of Interest Statistics

CPU 0 cumulative IPC: 0.135337 instructions: 25000001 cycles: 184724151
cpu0_DTLB TOTAL     ACCESS:    5782158  HIT:    5048376  MISS:     733782
cpu0_DTLB LOAD      ACCESS:    4554602  HIT:    4076613  MISS:     477989
cpu0_DTLB RFO       ACCESS:    1227556  HIT:     971763  MISS:     255793
cpu0_DTLB PREFETCH  ACCESS:          0  HIT:          0  MISS:          0
cpu0_DTLB WRITEBACK ACCESS:          0  HIT:          0  MISS:          0
cpu0_DTLB TRANSLATION ACCESS:          0  HIT:          0  MISS:          0
cpu0_DTLB PREFETCH  REQUESTED:          0  ISSUED:          0  USEFUL:          0  USELESS:          0
cpu0_DTLB AVERAGE MISS LATENCY: 13.8808 cycles
cpu0_ITLB TOTAL     ACCESS:    3107161  HIT:    3107161  MISS:          0
cpu0_ITLB LOAD      ACCESS:    3107161  HIT:    3107161  MISS:          0
cpu0_ITLB RFO       ACCESS:          0  HIT:          0  MISS:          0
cpu0_ITLB PREFETCH  ACCESS:          0  HIT:          0  MISS:          0
cpu0_ITLB WRITEBACK ACCESS:          0  HIT:          0  MISS:          0
cpu0_ITLB TRANSLATION ACCESS:          0  HIT:          0  MISS:          0
cpu0_ITLB PREFETCH  REQUESTED:          0  ISSUED:          0  USEFUL:          0  USELESS:          0
cpu0_ITLB AVERAGE MISS LATENCY: -nan cycles
cpu0_L1I TOTAL     ACCESS:         86  HIT:         86  MISS:          0
cpu0_L1I LOAD      ACCESS:         86  HIT:         86  MISS:          0
cpu0_L1I RFO       ACCESS:          0  HIT:          0  MISS:          0
cpu0_L1I PREFETCH  ACCESS:          0  HIT:          0  MISS:          0
cpu0_L1I WRITEBACK ACCESS:          0  HIT:          0  MISS:          0
cpu0_L1I TRANSLATION ACCESS:          0  HIT:          0  MISS:          0
cpu0_L1I PREFETCH  REQUESTED:          0  ISSUED:          0  USEFUL:          0  USELESS:          0
cpu0_L1I AVERAGE MISS LATENCY: -nan cycles
cpu0_STLB TOTAL     ACCESS:     733782  HIT:     397124  MISS:     336658
cpu0_STLB LOAD      ACCESS:     477989  HIT:     310200  MISS:     167789
cpu0_STLB RFO       ACCESS:     255793  HIT:      86924  MISS:     168869
cpu0_STLB PREFETCH  ACCESS:          0  HIT:          0  MISS:          0
cpu0_STLB WRITEBACK ACCESS:          0  HIT:          0  MISS:          0
cpu0_STLB TRANSLATION ACCESS:          0  HIT:          0  MISS:          0
cpu0_STLB PREFETCH  REQUESTED:          0  ISSUED:          0  USEFUL:          0  USELESS:          0
cpu0_STLB AVERAGE MISS LATENCY: 10.453 cycles
cpu0_L1D TOTAL     ACCESS:    6848118  HIT:    4761417  MISS:    2086701
cpu0_L1D LOAD      ACCESS:    5221995  HIT:    3147720  MISS:    2074275
cpu0_L1D RFO       ACCESS:    1299038  HIT:    1288006  MISS:      11032
cpu0_L1D PREFETCH  ACCESS:          0  HIT:          0  MISS:          0
cpu0_L1D WRITEBACK ACCESS:          0  HIT:          0  MISS:          0
cpu0_L1D TRANSLATION ACCESS:     327085  HIT:     325691  MISS:       1394
cpu0_L1D PREFETCH  REQUESTED:          0  ISSUED:          0  USEFUL:          0  USELESS:          0
cpu0_L1D AVERAGE MISS LATENCY: 166.349 cycles
cpu0_L2C TOTAL     ACCESS:    2874675  HIT:     975341  MISS:    1899334
cpu0_L2C LOAD      ACCESS:    2074275  HIT:     227674  MISS:    1846601
cpu0_L2C RFO       ACCESS:      11032  HIT:        120  MISS:      10912
cpu0_L2C PREFETCH  ACCESS:     139152  HIT:      97388  MISS:      41764
cpu0_L2C WRITEBACK ACCESS:     648822  HIT:     648809  MISS:         13
cpu0_L2C TRANSLATION ACCESS:       1394  HIT:       1350  MISS:         44
cpu0_L2C PREFETCH  REQUESTED:     147205  ISSUED:     141767  USEFUL:      10291  USELESS:      31610
cpu0_L2C AVERAGE MISS LATENCY: 176.62 cycles
LLC TOTAL     ACCESS:    2533338  HIT:    1263497  MISS:    1269841
LLC LOAD      ACCESS:    1846601  HIT:     625992  MISS:    1220609
LLC RFO       ACCESS:      10912  HIT:        515  MISS:      10397
LLC PREFETCH  ACCESS:      41782  HIT:       3070  MISS:      38712
LLC WRITEBACK ACCESS:     633999  HIT:     633909  MISS:         90
LLC TRANSLATION ACCESS:         44  HIT:         11  MISS:         33
LLC PREFETCH  REQUESTED:          0  ISSUED:          0  USEFUL:          0  USELESS:          0
LLC AVERAGE MISS LATENCY: 232.784 cycles

DRAM Statistics
 CHANNEL 0
 RQ ROW_BUFFER_HIT:      55532  ROW_BUFFER_MISS:    1213572
 DBUS AVG_CONGESTED_CYCLE:    3.95671
 WQ ROW_BUFFER_HIT:        977  ROW_BUFFER_MISS:     538245  FULL:          0


CPU 0 Branch Prediction Accuracy: 81.1279% MPKI: 35.6282 Average ROB Occupancy at Mispredict: 22.4054
Branch type MPKI
BRANCH_DIRECT_JUMP: 0
BRANCH_INDIRECT: 0
BRANCH_CONDITIONAL: 35.6282
BRANCH_DIRECT_CALL: 0
BRANCH_INDIRECT_CALL: 0
BRANCH_RETURN: 0
