./bin/champsim --warmup_instructions=25000000 --simulation_instructions=25000000 ./traces/bc-0.trace.gz 

*** ChampSim Multicore Out-of-Order Simulator ***

Warmup Instructions: 25000000
Simulation Instructions: 25000000
Number of CPUs: 1
Off-chip DRAM Size: 4 GiB Channels: 1 Width: 64-bit Data Rate: 3200 MT/s

VirtualMemory physical capacity: 8588881920 num_ppages: 2096895
VirtualMemory page size: 4096 log2_page_size: 12

CPU 0 runs ./traces/bc-0.trace.gz
CPU 0 Bimodal branch predictor
Basic BTB sets: 1024 ways: 8 indirect buffer size: 4096 RAS size: 64
cpu0_L2C Stream Plus Stride Prefetcher 1 4
WARNING: The extended signature CACHE::prefetch_line(ip, base_addr, pf_addr, fill_this_level, prefetch_metadata) is deprecated.
WARNING: Use CACHE::prefetch_line(pf_addr, fill_this_level, prefetch_metadata) instead.
Heartbeat CPU 0 instructions: 10000002 cycles: 3203427 heartbeat IPC: 3.12166 cumulative IPC: 3.12166 (Simulation time: 0 hr 0 min 49 sec) 
Heartbeat CPU 0 instructions: 20000003 cycles: 5712253 heartbeat IPC: 3.98593 cumulative IPC: 3.50125 (Simulation time: 0 hr 1 min 33 sec) 

Warmup complete CPU 0 instructions: 25000003 cycles: 6963685 (Simulation time: 0 hr 1 min 58 sec) 

Heartbeat CPU 0 instructions: 30000001 cycles: 42994032 heartbeat IPC: 0.268227 cumulative IPC: 0.138772 (Simulation time: 0 hr 2 min 47 sec) 
Heartbeat CPU 0 instructions: 40000002 cycles: 116680317 heartbeat IPC: 0.13571 cumulative IPC: 0.136716 (Simulation time: 0 hr 4 min 26 sec) 
Heartbeat CPU 0 instructions: 50000002 cycles: 190311509 heartbeat IPC: 0.135812 cumulative IPC: 0.136353 (Simulation time: 0 hr 6 min 2 sec) 
Finished CPU 0 instructions: 25000004 cycles: 183347825 cumulative IPC: 0.136353 (Simulation time: 0 hr 6 min 2 sec) 

ChampSim completed all CPUs

Region of Interest Statistics

CPU 0 cumulative IPC: 0.136353 instructions: 25000004 cycles: 183347825
cpu0_DTLB TOTAL     ACCESS:    5782100  HIT:    5048318  MISS:     733782
cpu0_DTLB LOAD      ACCESS:    4554510  HIT:    4076520  MISS:     477990
cpu0_DTLB RFO       ACCESS:    1227590  HIT:     971798  MISS:     255792
cpu0_DTLB PREFETCH  ACCESS:          0  HIT:          0  MISS:          0
cpu0_DTLB WRITEBACK ACCESS:          0  HIT:          0  MISS:          0
cpu0_DTLB TRANSLATION ACCESS:          0  HIT:          0  MISS:          0
cpu0_DTLB PREFETCH  REQUESTED:          0  ISSUED:          0  USEFUL:          0  USELESS:          0
cpu0_DTLB AVERAGE MISS LATENCY: 13.8773 cycles
cpu0_ITLB TOTAL     ACCESS:    3107161  HIT:    3107161  MISS:          0
cpu0_ITLB LOAD      ACCESS:    3107161  HIT:    3107161  MISS:          0
cpu0_ITLB RFO       ACCESS:          0  HIT:          0  MISS:          0
cpu0_ITLB PREFETCH  ACCESS:          0  HIT:          0  MISS:          0
cpu0_ITLB WRITEBACK ACCESS:          0  HIT:          0  MISS:          0
cpu0_ITLB TRANSLATION ACCESS:          0  HIT:          0  MISS:          0
cpu0_ITLB PREFETCH  REQUESTED:          0  ISSUED:          0  USEFUL:          0  USELESS:          0
cpu0_ITLB AVERAGE MISS LATENCY: -nan cycles
cpu0_L1I TOTAL     ACCESS:         86  HIT:         86  MISS:          0
cpu0_L1I LOAD      ACCESS:         86  HIT:         86  MISS:          0
cpu0_L1I RFO       ACCESS:          0  HIT:          0  MISS:          0
cpu0_L1I PREFETCH  ACCESS:          0  HIT:          0  MISS:          0
cpu0_L1I WRITEBACK ACCESS:          0  HIT:          0  MISS:          0
cpu0_L1I TRANSLATION ACCESS:          0  HIT:          0  MISS:          0
cpu0_L1I PREFETCH  REQUESTED:          0  ISSUED:          0  USEFUL:          0  USELESS:          0
cpu0_L1I AVERAGE MISS LATENCY: -nan cycles
cpu0_STLB TOTAL     ACCESS:     733782  HIT:     397124  MISS:     336658
cpu0_STLB LOAD      ACCESS:     477990  HIT:     310199  MISS:     167791
cpu0_STLB RFO       ACCESS:     255792  HIT:      86925  MISS:     168867
cpu0_STLB PREFETCH  ACCESS:          0  HIT:          0  MISS:          0
cpu0_STLB WRITEBACK ACCESS:          0  HIT:          0  MISS:          0
cpu0_STLB TRANSLATION ACCESS:          0  HIT:          0  MISS:          0
cpu0_STLB PREFETCH  REQUESTED:          0  ISSUED:          0  USEFUL:          0  USELESS:          0
cpu0_STLB AVERAGE MISS LATENCY: 10.4455 cycles
cpu0_L1D TOTAL     ACCESS:    6847867  HIT:    4761167  MISS:    2086700
cpu0_L1D LOAD      ACCESS:    5221806  HIT:    3147532  MISS:    2074274
cpu0_L1D RFO       ACCESS:    1298978  HIT:    1287946  MISS:      11032
cpu0_L1D PREFETCH  ACCESS:          0  HIT:          0  MISS:          0
cpu0_L1D WRITEBACK ACCESS:          0  HIT:          0  MISS:          0
cpu0_L1D TRANSLATION ACCESS:     327083  HIT:     325689  MISS:       1394
cpu0_L1D PREFETCH  REQUESTED:          0  ISSUED:          0  USEFUL:          0  USELESS:          0
cpu0_L1D AVERAGE MISS LATENCY: 164.547 cycles
cpu0_L2C TOTAL     ACCESS:    2844991  HIT:     972717  MISS:    1872274
cpu0_L2C LOAD      ACCESS:    2074274  HIT:     229787  MISS:    1844487
cpu0_L2C RFO       ACCESS:      11032  HIT:        130  MISS:      10902
cpu0_L2C PREFETCH  ACCESS:     109470  HIT:      92642  MISS:      16828
cpu0_L2C WRITEBACK ACCESS:     648821  HIT:     648808  MISS:         13
cpu0_L2C TRANSLATION ACCESS:       1394  HIT:       1350  MISS:         44
cpu0_L2C PREFETCH  REQUESTED:     114803  ISSUED:     110927  USEFUL:       6980  USELESS:       9886
cpu0_L2C AVERAGE MISS LATENCY: 173.392 cycles
LLC TOTAL     ACCESS:    2506153  HIT:    1269652  MISS:    1236501
LLC LOAD      ACCESS:    1844487  HIT:     633989  MISS:    1210498
LLC RFO       ACCESS:      10902  HIT:        514  MISS:      10388
LLC PREFETCH  ACCESS:      16897  HIT:       1404  MISS:      15493
LLC WRITEBACK ACCESS:     633823  HIT:     633734  MISS:         89
LLC TRANSLATION ACCESS:         44  HIT:         11  MISS:         33
LLC PREFETCH  REQUESTED:          0  ISSUED:          0  USEFUL:          0  USELESS:          0
LLC AVERAGE MISS LATENCY: 230.783 cycles

DRAM Statistics
 CHANNEL 0
 RQ ROW_BUFFER_HIT:      54694  ROW_BUFFER_MISS:    1181103
 DBUS AVG_CONGESTED_CYCLE:    3.95738
 WQ ROW_BUFFER_HIT:       1013  ROW_BUFFER_MISS:     535930  FULL:          0


CPU 0 Branch Prediction Accuracy: 81.1279% MPKI: 35.6282 Average ROB Occupancy at Mispredict: 22.4735
Branch type MPKI
BRANCH_DIRECT_JUMP: 0
BRANCH_INDIRECT: 0
BRANCH_CONDITIONAL: 35.6282
BRANCH_DIRECT_CALL: 0
BRANCH_INDIRECT_CALL: 0
BRANCH_RETURN: 0
