./bin/champsim --warmup_instructions=25000000 --simulation_instructions=25000000 ./traces/bc-0.trace.gz 

*** ChampSim Multicore Out-of-Order Simulator ***

Warmup Instructions: 25000000
Simulation Instructions: 25000000
Number of CPUs: 1
Off-chip DRAM Size: 4 GiB Channels: 1 Width: 64-bit Data Rate: 3200 MT/s

VirtualMemory physical capacity: 8588881920 num_ppages: 2096895
VirtualMemory page size: 4096 log2_page_size: 12

CPU 0 runs ./traces/bc-0.trace.gz
CPU 0 Bimodal branch predictor
Basic BTB sets: 1024 ways: 8 indirect buffer size: 4096 RAS size: 64
cpu0_L2C Stream Plus Stride Prefetcher 3 64
WARNING: The extended signature CACHE::prefetch_line(ip, base_addr, pf_addr, fill_this_level, prefetch_metadata) is deprecated.
WARNING: Use CACHE::prefetch_line(pf_addr, fill_this_level, prefetch_metadata) instead.
Heartbeat CPU 0 instructions: 10000002 cycles: 3203425 heartbeat IPC: 3.12166 cumulative IPC: 3.12166 (Simulation time: 0 hr 0 min 57 sec) 
Heartbeat CPU 0 instructions: 20000001 cycles: 5712249 heartbeat IPC: 3.98593 cumulative IPC: 3.50125 (Simulation time: 0 hr 1 min 43 sec) 

Warmup complete CPU 0 instructions: 25000003 cycles: 6963682 (Simulation time: 0 hr 2 min 3 sec) 

Heartbeat CPU 0 instructions: 30000001 cycles: 43231343 heartbeat IPC: 0.266531 cumulative IPC: 0.137864 (Simulation time: 0 hr 3 min 15 sec) 
Heartbeat CPU 0 instructions: 40000002 cycles: 117706296 heartbeat IPC: 0.134273 cumulative IPC: 0.135449 (Simulation time: 0 hr 5 min 32 sec) 
Heartbeat CPU 0 instructions: 50000002 cycles: 192160229 heartbeat IPC: 0.134311 cumulative IPC: 0.134992 (Simulation time: 0 hr 7 min 17 sec) 
Finished CPU 0 instructions: 25000004 cycles: 185196548 cumulative IPC: 0.134992 (Simulation time: 0 hr 7 min 17 sec) 

ChampSim completed all CPUs

Region of Interest Statistics

CPU 0 cumulative IPC: 0.134992 instructions: 25000004 cycles: 185196548
cpu0_DTLB TOTAL     ACCESS:    5782031  HIT:    5048249  MISS:     733782
cpu0_DTLB LOAD      ACCESS:    4554455  HIT:    4076467  MISS:     477988
cpu0_DTLB RFO       ACCESS:    1227576  HIT:     971782  MISS:     255794
cpu0_DTLB PREFETCH  ACCESS:          0  HIT:          0  MISS:          0
cpu0_DTLB WRITEBACK ACCESS:          0  HIT:          0  MISS:          0
cpu0_DTLB TRANSLATION ACCESS:          0  HIT:          0  MISS:          0
cpu0_DTLB PREFETCH  REQUESTED:          0  ISSUED:          0  USEFUL:          0  USELESS:          0
cpu0_DTLB AVERAGE MISS LATENCY: 13.8712 cycles
cpu0_ITLB TOTAL     ACCESS:    3107161  HIT:    3107161  MISS:          0
cpu0_ITLB LOAD      ACCESS:    3107161  HIT:    3107161  MISS:          0
cpu0_ITLB RFO       ACCESS:          0  HIT:          0  MISS:          0
cpu0_ITLB PREFETCH  ACCESS:          0  HIT:          0  MISS:          0
cpu0_ITLB WRITEBACK ACCESS:          0  HIT:          0  MISS:          0
cpu0_ITLB TRANSLATION ACCESS:          0  HIT:          0  MISS:          0
cpu0_ITLB PREFETCH  REQUESTED:          0  ISSUED:          0  USEFUL:          0  USELESS:          0
cpu0_ITLB AVERAGE MISS LATENCY: -nan cycles
cpu0_L1I TOTAL     ACCESS:         86  HIT:         86  MISS:          0
cpu0_L1I LOAD      ACCESS:         86  HIT:         86  MISS:          0
cpu0_L1I RFO       ACCESS:          0  HIT:          0  MISS:          0
cpu0_L1I PREFETCH  ACCESS:          0  HIT:          0  MISS:          0
cpu0_L1I WRITEBACK ACCESS:          0  HIT:          0  MISS:          0
cpu0_L1I TRANSLATION ACCESS:          0  HIT:          0  MISS:          0
cpu0_L1I PREFETCH  REQUESTED:          0  ISSUED:          0  USEFUL:          0  USELESS:          0
cpu0_L1I AVERAGE MISS LATENCY: -nan cycles
cpu0_STLB TOTAL     ACCESS:     733782  HIT:     397124  MISS:     336658
cpu0_STLB LOAD      ACCESS:     477988  HIT:     310198  MISS:     167790
cpu0_STLB RFO       ACCESS:     255794  HIT:      86926  MISS:     168868
cpu0_STLB PREFETCH  ACCESS:          0  HIT:          0  MISS:          0
cpu0_STLB WRITEBACK ACCESS:          0  HIT:          0  MISS:          0
cpu0_STLB TRANSLATION ACCESS:          0  HIT:          0  MISS:          0
cpu0_STLB PREFETCH  REQUESTED:          0  ISSUED:          0  USEFUL:          0  USELESS:          0
cpu0_STLB AVERAGE MISS LATENCY: 10.4322 cycles
cpu0_L1D TOTAL     ACCESS:    6848056  HIT:    4761356  MISS:    2086700
cpu0_L1D LOAD      ACCESS:    5221924  HIT:    3147650  MISS:    2074274
cpu0_L1D RFO       ACCESS:    1299048  HIT:    1288016  MISS:      11032
cpu0_L1D PREFETCH  ACCESS:          0  HIT:          0  MISS:          0
cpu0_L1D WRITEBACK ACCESS:          0  HIT:          0  MISS:          0
cpu0_L1D TRANSLATION ACCESS:     327084  HIT:     325690  MISS:       1394
cpu0_L1D PREFETCH  REQUESTED:          0  ISSUED:          0  USEFUL:          0  USELESS:          0
cpu0_L1D AVERAGE MISS LATENCY: 166.96 cycles
cpu0_L2C TOTAL     ACCESS:    2875503  HIT:     966319  MISS:    1909184
cpu0_L2C LOAD      ACCESS:    2074274  HIT:     226761  MISS:    1847513
cpu0_L2C RFO       ACCESS:      11032  HIT:        121  MISS:      10911
cpu0_L2C PREFETCH  ACCESS:     139982  HIT:      89280  MISS:      50702
cpu0_L2C WRITEBACK ACCESS:     648821  HIT:     648808  MISS:         13
cpu0_L2C TRANSLATION ACCESS:       1394  HIT:       1349  MISS:         45
cpu0_L2C PREFETCH  REQUESTED:     148317  ISSUED:     142757  USEFUL:      11810  USELESS:      39043
cpu0_L2C AVERAGE MISS LATENCY: 177.711 cycles
LLC TOTAL     ACCESS:    2543239  HIT:    1261676  MISS:    1281563
LLC LOAD      ACCESS:    1847513  HIT:     623702  MISS:    1223811
LLC RFO       ACCESS:      10911  HIT:        518  MISS:      10393
LLC PREFETCH  ACCESS:      50712  HIT:       3469  MISS:      47243
LLC WRITEBACK ACCESS:     634058  HIT:     633976  MISS:         82
LLC TRANSLATION ACCESS:         45  HIT:         11  MISS:         34
LLC PREFETCH  REQUESTED:          0  ISSUED:          0  USEFUL:          0  USELESS:          0
LLC AVERAGE MISS LATENCY: 233.469 cycles

DRAM Statistics
 CHANNEL 0
 RQ ROW_BUFFER_HIT:      55863  ROW_BUFFER_MISS:    1224995
 DBUS AVG_CONGESTED_CYCLE:    3.95649
 WQ ROW_BUFFER_HIT:       1071  ROW_BUFFER_MISS:     538704  FULL:          0


CPU 0 Branch Prediction Accuracy: 81.1279% MPKI: 35.6282 Average ROB Occupancy at Mispredict: 22.3901
Branch type MPKI
BRANCH_DIRECT_JUMP: 0
BRANCH_INDIRECT: 0
BRANCH_CONDITIONAL: 35.6282
BRANCH_DIRECT_CALL: 0
BRANCH_INDIRECT_CALL: 0
BRANCH_RETURN: 0
