./bin/champsim --warmup_instructions=25000000 --simulation_instructions=25000000 ./traces/bc-0.trace.gz 

*** ChampSim Multicore Out-of-Order Simulator ***

Warmup Instructions: 25000000
Simulation Instructions: 25000000
Number of CPUs: 1
Off-chip DRAM Size: 4 GiB Channels: 1 Width: 64-bit Data Rate: 3200 MT/s

VirtualMemory physical capacity: 8588881920 num_ppages: 2096895
VirtualMemory page size: 4096 log2_page_size: 12

CPU 0 runs ./traces/bc-0.trace.gz
CPU 0 Bimodal branch predictor
Basic BTB sets: 1024 ways: 8 indirect buffer size: 4096 RAS size: 64
cpu0_L2C Stream Plus Stride Prefetcher 1 64
WARNING: The extended signature CACHE::prefetch_line(ip, base_addr, pf_addr, fill_this_level, prefetch_metadata) is deprecated.
WARNING: Use CACHE::prefetch_line(pf_addr, fill_this_level, prefetch_metadata) instead.
Heartbeat CPU 0 instructions: 10000002 cycles: 3203426 heartbeat IPC: 3.12166 cumulative IPC: 3.12166 (Simulation time: 0 hr 0 min 47 sec) 
Heartbeat CPU 0 instructions: 20000001 cycles: 5712251 heartbeat IPC: 3.98593 cumulative IPC: 3.50125 (Simulation time: 0 hr 1 min 27 sec) 

Warmup complete CPU 0 instructions: 25000003 cycles: 6963684 (Simulation time: 0 hr 1 min 48 sec) 

Heartbeat CPU 0 instructions: 30000001 cycles: 43238868 heartbeat IPC: 0.266478 cumulative IPC: 0.137835 (Simulation time: 0 hr 2 min 49 sec) 
Heartbeat CPU 0 instructions: 40000002 cycles: 117664917 heartbeat IPC: 0.134362 cumulative IPC: 0.1355 (Simulation time: 0 hr 5 min 10 sec) 
Heartbeat CPU 0 instructions: 50000002 cycles: 192073969 heartbeat IPC: 0.134392 cumulative IPC: 0.135055 (Simulation time: 0 hr 6 min 53 sec) 
Finished CPU 0 instructions: 25000004 cycles: 185110286 cumulative IPC: 0.135055 (Simulation time: 0 hr 6 min 53 sec) 

ChampSim completed all CPUs

Region of Interest Statistics

CPU 0 cumulative IPC: 0.135055 instructions: 25000004 cycles: 185110286
cpu0_DTLB TOTAL     ACCESS:    5781800  HIT:    5048018  MISS:     733782
cpu0_DTLB LOAD      ACCESS:    4554282  HIT:    4076296  MISS:     477986
cpu0_DTLB RFO       ACCESS:    1227518  HIT:     971722  MISS:     255796
cpu0_DTLB PREFETCH  ACCESS:          0  HIT:          0  MISS:          0
cpu0_DTLB WRITEBACK ACCESS:          0  HIT:          0  MISS:          0
cpu0_DTLB TRANSLATION ACCESS:          0  HIT:          0  MISS:          0
cpu0_DTLB PREFETCH  REQUESTED:          0  ISSUED:          0  USEFUL:          0  USELESS:          0
cpu0_DTLB AVERAGE MISS LATENCY: 13.8843 cycles
cpu0_ITLB TOTAL     ACCESS:    3107161  HIT:    3107161  MISS:          0
cpu0_ITLB LOAD      ACCESS:    3107161  HIT:    3107161  MISS:          0
cpu0_ITLB RFO       ACCESS:          0  HIT:          0  MISS:          0
cpu0_ITLB PREFETCH  ACCESS:          0  HIT:          0  MISS:          0
cpu0_ITLB WRITEBACK ACCESS:          0  HIT:          0  MISS:          0
cpu0_ITLB TRANSLATION ACCESS:          0  HIT:          0  MISS:          0
cpu0_ITLB PREFETCH  REQUESTED:          0  ISSUED:          0  USEFUL:          0  USELESS:          0
cpu0_ITLB AVERAGE MISS LATENCY: -nan cycles
cpu0_L1I TOTAL     ACCESS:         86  HIT:         86  MISS:          0
cpu0_L1I LOAD      ACCESS:         86  HIT:         86  MISS:          0
cpu0_L1I RFO       ACCESS:          0  HIT:          0  MISS:          0
cpu0_L1I PREFETCH  ACCESS:          0  HIT:          0  MISS:          0
cpu0_L1I WRITEBACK ACCESS:          0  HIT:          0  MISS:          0
cpu0_L1I TRANSLATION ACCESS:          0  HIT:          0  MISS:          0
cpu0_L1I PREFETCH  REQUESTED:          0  ISSUED:          0  USEFUL:          0  USELESS:          0
cpu0_L1I AVERAGE MISS LATENCY: -nan cycles
cpu0_STLB TOTAL     ACCESS:     733782  HIT:     397124  MISS:     336658
cpu0_STLB LOAD      ACCESS:     477986  HIT:     310199  MISS:     167787
cpu0_STLB RFO       ACCESS:     255796  HIT:      86925  MISS:     168871
cpu0_STLB PREFETCH  ACCESS:          0  HIT:          0  MISS:          0
cpu0_STLB WRITEBACK ACCESS:          0  HIT:          0  MISS:          0
cpu0_STLB TRANSLATION ACCESS:          0  HIT:          0  MISS:          0
cpu0_STLB PREFETCH  REQUESTED:          0  ISSUED:          0  USEFUL:          0  USELESS:          0
cpu0_STLB AVERAGE MISS LATENCY: 10.4607 cycles
cpu0_L1D TOTAL     ACCESS:    6847992  HIT:    4761292  MISS:    2086700
cpu0_L1D LOAD      ACCESS:    5221861  HIT:    3147587  MISS:    2074274
cpu0_L1D RFO       ACCESS:    1299046  HIT:    1288014  MISS:      11032
cpu0_L1D PREFETCH  ACCESS:          0  HIT:          0  MISS:          0
cpu0_L1D WRITEBACK ACCESS:          0  HIT:          0  MISS:          0
cpu0_L1D TRANSLATION ACCESS:     327085  HIT:     325691  MISS:       1394
cpu0_L1D PREFETCH  REQUESTED:          0  ISSUED:          0  USEFUL:          0  USELESS:          0
cpu0_L1D AVERAGE MISS LATENCY: 166.728 cycles
cpu0_L2C TOTAL     ACCESS:    2886236  HIT:     979345  MISS:    1906891
cpu0_L2C LOAD      ACCESS:    2074274  HIT:     227062  MISS:    1847212
cpu0_L2C RFO       ACCESS:      11032  HIT:        121  MISS:      10911
cpu0_L2C PREFETCH  ACCESS:     150715  HIT:     102004  MISS:      48711
cpu0_L2C WRITEBACK ACCESS:     648821  HIT:     648808  MISS:         13
cpu0_L2C TRANSLATION ACCESS:       1394  HIT:       1350  MISS:         44
cpu0_L2C PREFETCH  REQUESTED:     159005  ISSUED:     153079  USEFUL:       9950  USELESS:      38918
cpu0_L2C AVERAGE MISS LATENCY: 177.356 cycles
LLC TOTAL     ACCESS:    2540911  HIT:    1262139  MISS:    1278772
LLC LOAD      ACCESS:    1847212  HIT:     624226  MISS:    1222986
LLC RFO       ACCESS:      10911  HIT:        519  MISS:      10392
LLC PREFETCH  ACCESS:      48714  HIT:       3437  MISS:      45277
LLC WRITEBACK ACCESS:     634030  HIT:     633946  MISS:         84
LLC TRANSLATION ACCESS:         44  HIT:         11  MISS:         33
LLC PREFETCH  REQUESTED:          0  ISSUED:          0  USEFUL:          0  USELESS:          0
LLC AVERAGE MISS LATENCY: 233.161 cycles

DRAM Statistics
 CHANNEL 0
 RQ ROW_BUFFER_HIT:      55743  ROW_BUFFER_MISS:    1222311
 DBUS AVG_CONGESTED_CYCLE:    3.95673
 WQ ROW_BUFFER_HIT:       1031  ROW_BUFFER_MISS:     538592  FULL:          0


CPU 0 Branch Prediction Accuracy: 81.1279% MPKI: 35.6282 Average ROB Occupancy at Mispredict: 22.3958
Branch type MPKI
BRANCH_DIRECT_JUMP: 0
BRANCH_INDIRECT: 0
BRANCH_CONDITIONAL: 35.6282
BRANCH_DIRECT_CALL: 0
BRANCH_INDIRECT_CALL: 0
BRANCH_RETURN: 0
