./bin/champsim --warmup_instructions=25000000 --simulation_instructions=25000000 ./traces/bc-0.trace.gz 

*** ChampSim Multicore Out-of-Order Simulator ***

Warmup Instructions: 25000000
Simulation Instructions: 25000000
Number of CPUs: 1
Off-chip DRAM Size: 4 GiB Channels: 1 Width: 64-bit Data Rate: 3200 MT/s

VirtualMemory physical capacity: 8588881920 num_ppages: 2096895
VirtualMemory page size: 4096 log2_page_size: 12

CPU 0 runs ./traces/bc-0.trace.gz
CPU 0 Bimodal branch predictor
Basic BTB sets: 1024 ways: 8 indirect buffer size: 4096 RAS size: 64
cpu0_L2C Stream Plus Stride Prefetcher 4 4
WARNING: The extended signature CACHE::prefetch_line(ip, base_addr, pf_addr, fill_this_level, prefetch_metadata) is deprecated.
WARNING: Use CACHE::prefetch_line(pf_addr, fill_this_level, prefetch_metadata) instead.
Heartbeat CPU 0 instructions: 10000002 cycles: 3203426 heartbeat IPC: 3.12166 cumulative IPC: 3.12166 (Simulation time: 0 hr 0 min 58 sec) 
Heartbeat CPU 0 instructions: 20000002 cycles: 5712252 heartbeat IPC: 3.98593 cumulative IPC: 3.50125 (Simulation time: 0 hr 1 min 43 sec) 

Warmup complete CPU 0 instructions: 25000003 cycles: 6963685 (Simulation time: 0 hr 2 min 5 sec) 

Heartbeat CPU 0 instructions: 30000001 cycles: 42993812 heartbeat IPC: 0.268229 cumulative IPC: 0.138773 (Simulation time: 0 hr 3 min 1 sec) 
Heartbeat CPU 0 instructions: 40000002 cycles: 116731946 heartbeat IPC: 0.135615 cumulative IPC: 0.136652 (Simulation time: 0 hr 4 min 52 sec) 
Heartbeat CPU 0 instructions: 50000002 cycles: 190395289 heartbeat IPC: 0.135753 cumulative IPC: 0.136291 (Simulation time: 0 hr 6 min 38 sec) 
Finished CPU 0 instructions: 25000004 cycles: 183431605 cumulative IPC: 0.136291 (Simulation time: 0 hr 6 min 38 sec) 

ChampSim completed all CPUs

Region of Interest Statistics

CPU 0 cumulative IPC: 0.136291 instructions: 25000004 cycles: 183431605
cpu0_DTLB TOTAL     ACCESS:    5782063  HIT:    5048281  MISS:     733782
cpu0_DTLB LOAD      ACCESS:    4554507  HIT:    4076522  MISS:     477985
cpu0_DTLB RFO       ACCESS:    1227556  HIT:     971759  MISS:     255797
cpu0_DTLB PREFETCH  ACCESS:          0  HIT:          0  MISS:          0
cpu0_DTLB WRITEBACK ACCESS:          0  HIT:          0  MISS:          0
cpu0_DTLB TRANSLATION ACCESS:          0  HIT:          0  MISS:          0
cpu0_DTLB PREFETCH  REQUESTED:          0  ISSUED:          0  USEFUL:          0  USELESS:          0
cpu0_DTLB AVERAGE MISS LATENCY: 13.8989 cycles
cpu0_ITLB TOTAL     ACCESS:    3107161  HIT:    3107161  MISS:          0
cpu0_ITLB LOAD      ACCESS:    3107161  HIT:    3107161  MISS:          0
cpu0_ITLB RFO       ACCESS:          0  HIT:          0  MISS:          0
cpu0_ITLB PREFETCH  ACCESS:          0  HIT:          0  MISS:          0
cpu0_ITLB WRITEBACK ACCESS:          0  HIT:          0  MISS:          0
cpu0_ITLB TRANSLATION ACCESS:          0  HIT:          0  MISS:          0
cpu0_ITLB PREFETCH  REQUESTED:          0  ISSUED:          0  USEFUL:          0  USELESS:          0
cpu0_ITLB AVERAGE MISS LATENCY: -nan cycles
cpu0_L1I TOTAL     ACCESS:         86  HIT:         86  MISS:          0
cpu0_L1I LOAD      ACCESS:         86  HIT:         86  MISS:          0
cpu0_L1I RFO       ACCESS:          0  HIT:          0  MISS:          0
cpu0_L1I PREFETCH  ACCESS:          0  HIT:          0  MISS:          0
cpu0_L1I WRITEBACK ACCESS:          0  HIT:          0  MISS:          0
cpu0_L1I TRANSLATION ACCESS:          0  HIT:          0  MISS:          0
cpu0_L1I PREFETCH  REQUESTED:          0  ISSUED:          0  USEFUL:          0  USELESS:          0
cpu0_L1I AVERAGE MISS LATENCY: -nan cycles
cpu0_STLB TOTAL     ACCESS:     733782  HIT:     397124  MISS:     336658
cpu0_STLB LOAD      ACCESS:     477985  HIT:     310195  MISS:     167790
cpu0_STLB RFO       ACCESS:     255797  HIT:      86929  MISS:     168868
cpu0_STLB PREFETCH  ACCESS:          0  HIT:          0  MISS:          0
cpu0_STLB WRITEBACK ACCESS:          0  HIT:          0  MISS:          0
cpu0_STLB TRANSLATION ACCESS:          0  HIT:          0  MISS:          0
cpu0_STLB PREFETCH  REQUESTED:          0  ISSUED:          0  USEFUL:          0  USELESS:          0
cpu0_STLB AVERAGE MISS LATENCY: 10.4925 cycles
cpu0_L1D TOTAL     ACCESS:    6847943  HIT:    4761244  MISS:    2086699
cpu0_L1D LOAD      ACCESS:    5221881  HIT:    3147608  MISS:    2074273
cpu0_L1D RFO       ACCESS:    1298975  HIT:    1287943  MISS:      11032
cpu0_L1D PREFETCH  ACCESS:          0  HIT:          0  MISS:          0
cpu0_L1D WRITEBACK ACCESS:          0  HIT:          0  MISS:          0
cpu0_L1D TRANSLATION ACCESS:     327087  HIT:     325693  MISS:       1394
cpu0_L1D PREFETCH  REQUESTED:          0  ISSUED:          0  USEFUL:          0  USELESS:          0
cpu0_L1D AVERAGE MISS LATENCY: 164.739 cycles
cpu0_L2C TOTAL     ACCESS:    2784204  HIT:     910924  MISS:    1873280
cpu0_L2C LOAD      ACCESS:    2074273  HIT:     229743  MISS:    1844530
cpu0_L2C RFO       ACCESS:      11032  HIT:        130  MISS:      10902
cpu0_L2C PREFETCH  ACCESS:      48684  HIT:      30893  MISS:      17791
cpu0_L2C WRITEBACK ACCESS:     648821  HIT:     648808  MISS:         13
cpu0_L2C TRANSLATION ACCESS:       1394  HIT:       1350  MISS:         44
cpu0_L2C PREFETCH  REQUESTED:      51250  ISSUED:      49760  USEFUL:       6476  USELESS:      11354
cpu0_L2C AVERAGE MISS LATENCY: 173.672 cycles
LLC TOTAL     ACCESS:    2507167  HIT:    1269234  MISS:    1237933
LLC LOAD      ACCESS:    1844530  HIT:     633578  MISS:    1210952
LLC RFO       ACCESS:      10902  HIT:        513  MISS:      10389
LLC PREFETCH  ACCESS:      17862  HIT:       1392  MISS:      16470
LLC WRITEBACK ACCESS:     633829  HIT:     633740  MISS:         89
LLC TRANSLATION ACCESS:         44  HIT:         11  MISS:         33
LLC PREFETCH  REQUESTED:          0  ISSUED:          0  USEFUL:          0  USELESS:          0
LLC AVERAGE MISS LATENCY: 231.069 cycles

DRAM Statistics
 CHANNEL 0
 RQ ROW_BUFFER_HIT:      54478  ROW_BUFFER_MISS:    1182784
 DBUS AVG_CONGESTED_CYCLE:     3.9575
 WQ ROW_BUFFER_HIT:       1004  ROW_BUFFER_MISS:     536046  FULL:          0


CPU 0 Branch Prediction Accuracy: 81.1279% MPKI: 35.6282 Average ROB Occupancy at Mispredict: 22.4697
Branch type MPKI
BRANCH_DIRECT_JUMP: 0
BRANCH_INDIRECT: 0
BRANCH_CONDITIONAL: 35.6282
BRANCH_DIRECT_CALL: 0
BRANCH_INDIRECT_CALL: 0
BRANCH_RETURN: 0
