./bin/champsim --warmup_instructions=25000000 --simulation_instructions=25000000 ./traces/bc-0.trace.gz 

*** ChampSim Multicore Out-of-Order Simulator ***

Warmup Instructions: 25000000
Simulation Instructions: 25000000
Number of CPUs: 1
Off-chip DRAM Size: 4 GiB Channels: 1 Width: 64-bit Data Rate: 3200 MT/s

VirtualMemory physical capacity: 8588881920 num_ppages: 2096895
VirtualMemory page size: 4096 log2_page_size: 12

CPU 0 runs ./traces/bc-0.trace.gz
CPU 0 Bimodal branch predictor
Basic BTB sets: 1024 ways: 8 indirect buffer size: 4096 RAS size: 64
cpu0_L2C Stream Plus Stride Prefetcher 4 16
WARNING: The extended signature CACHE::prefetch_line(ip, base_addr, pf_addr, fill_this_level, prefetch_metadata) is deprecated.
WARNING: Use CACHE::prefetch_line(pf_addr, fill_this_level, prefetch_metadata) instead.
Heartbeat CPU 0 instructions: 10000002 cycles: 3203425 heartbeat IPC: 3.12166 cumulative IPC: 3.12166 (Simulation time: 0 hr 0 min 59 sec) 
Heartbeat CPU 0 instructions: 20000001 cycles: 5712251 heartbeat IPC: 3.98593 cumulative IPC: 3.50125 (Simulation time: 0 hr 1 min 44 sec) 

Warmup complete CPU 0 instructions: 25000003 cycles: 6963684 (Simulation time: 0 hr 2 min 1 sec) 

Heartbeat CPU 0 instructions: 30000001 cycles: 43205946 heartbeat IPC: 0.266712 cumulative IPC: 0.13796 (Simulation time: 0 hr 3 min 1 sec) 
Heartbeat CPU 0 instructions: 40000002 cycles: 117576791 heartbeat IPC: 0.134461 cumulative IPC: 0.135608 (Simulation time: 0 hr 4 min 43 sec) 
Heartbeat CPU 0 instructions: 50000002 cycles: 191895471 heartbeat IPC: 0.134556 cumulative IPC: 0.135185 (Simulation time: 0 hr 6 min 28 sec) 
Finished CPU 0 instructions: 25000004 cycles: 184931788 cumulative IPC: 0.135185 (Simulation time: 0 hr 6 min 28 sec) 

ChampSim completed all CPUs

Region of Interest Statistics

CPU 0 cumulative IPC: 0.135185 instructions: 25000004 cycles: 184931788
cpu0_DTLB TOTAL     ACCESS:    5781955  HIT:    5048173  MISS:     733782
cpu0_DTLB LOAD      ACCESS:    4554425  HIT:    4076435  MISS:     477990
cpu0_DTLB RFO       ACCESS:    1227530  HIT:     971738  MISS:     255792
cpu0_DTLB PREFETCH  ACCESS:          0  HIT:          0  MISS:          0
cpu0_DTLB WRITEBACK ACCESS:          0  HIT:          0  MISS:          0
cpu0_DTLB TRANSLATION ACCESS:          0  HIT:          0  MISS:          0
cpu0_DTLB PREFETCH  REQUESTED:          0  ISSUED:          0  USEFUL:          0  USELESS:          0
cpu0_DTLB AVERAGE MISS LATENCY: 13.8837 cycles
cpu0_ITLB TOTAL     ACCESS:    3107161  HIT:    3107161  MISS:          0
cpu0_ITLB LOAD      ACCESS:    3107161  HIT:    3107161  MISS:          0
cpu0_ITLB RFO       ACCESS:          0  HIT:          0  MISS:          0
cpu0_ITLB PREFETCH  ACCESS:          0  HIT:          0  MISS:          0
cpu0_ITLB WRITEBACK ACCESS:          0  HIT:          0  MISS:          0
cpu0_ITLB TRANSLATION ACCESS:          0  HIT:          0  MISS:          0
cpu0_ITLB PREFETCH  REQUESTED:          0  ISSUED:          0  USEFUL:          0  USELESS:          0
cpu0_ITLB AVERAGE MISS LATENCY: -nan cycles
cpu0_L1I TOTAL     ACCESS:         86  HIT:         86  MISS:          0
cpu0_L1I LOAD      ACCESS:         86  HIT:         86  MISS:          0
cpu0_L1I RFO       ACCESS:          0  HIT:          0  MISS:          0
cpu0_L1I PREFETCH  ACCESS:          0  HIT:          0  MISS:          0
cpu0_L1I WRITEBACK ACCESS:          0  HIT:          0  MISS:          0
cpu0_L1I TRANSLATION ACCESS:          0  HIT:          0  MISS:          0
cpu0_L1I PREFETCH  REQUESTED:          0  ISSUED:          0  USEFUL:          0  USELESS:          0
cpu0_L1I AVERAGE MISS LATENCY: -nan cycles
cpu0_STLB TOTAL     ACCESS:     733782  HIT:     397124  MISS:     336658
cpu0_STLB LOAD      ACCESS:     477990  HIT:     310200  MISS:     167790
cpu0_STLB RFO       ACCESS:     255792  HIT:      86924  MISS:     168868
cpu0_STLB PREFETCH  ACCESS:          0  HIT:          0  MISS:          0
cpu0_STLB WRITEBACK ACCESS:          0  HIT:          0  MISS:          0
cpu0_STLB TRANSLATION ACCESS:          0  HIT:          0  MISS:          0
cpu0_STLB PREFETCH  REQUESTED:          0  ISSUED:          0  USEFUL:          0  USELESS:          0
cpu0_STLB AVERAGE MISS LATENCY: 10.4595 cycles
cpu0_L1D TOTAL     ACCESS:    6848111  HIT:    4761410  MISS:    2086701
cpu0_L1D LOAD      ACCESS:    5221969  HIT:    3147694  MISS:    2074275
cpu0_L1D RFO       ACCESS:    1299057  HIT:    1288025  MISS:      11032
cpu0_L1D PREFETCH  ACCESS:          0  HIT:          0  MISS:          0
cpu0_L1D WRITEBACK ACCESS:          0  HIT:          0  MISS:          0
cpu0_L1D TRANSLATION ACCESS:     327085  HIT:     325691  MISS:       1394
cpu0_L1D PREFETCH  REQUESTED:          0  ISSUED:          0  USEFUL:          0  USELESS:          0
cpu0_L1D AVERAGE MISS LATENCY: 166.787 cycles
cpu0_L2C TOTAL     ACCESS:    2832616  HIT:     929119  MISS:    1903497
cpu0_L2C LOAD      ACCESS:    2074275  HIT:     227323  MISS:    1846952
cpu0_L2C RFO       ACCESS:      11032  HIT:        117  MISS:      10915
cpu0_L2C PREFETCH  ACCESS:      97094  HIT:      51521  MISS:      45573
cpu0_L2C WRITEBACK ACCESS:     648821  HIT:     648808  MISS:         13
cpu0_L2C TRANSLATION ACCESS:       1394  HIT:       1350  MISS:         44
cpu0_L2C PREFETCH  REQUESTED:     103158  ISSUED:      99412  USEFUL:      12020  USELESS:      33701
cpu0_L2C AVERAGE MISS LATENCY: 177.322 cycles
LLC TOTAL     ACCESS:    2537605  HIT:    1262420  MISS:    1275185
LLC LOAD      ACCESS:    1846952  HIT:     624793  MISS:    1222159
LLC RFO       ACCESS:      10915  HIT:        515  MISS:      10400
LLC PREFETCH  ACCESS:      45675  HIT:       3172  MISS:      42503
LLC WRITEBACK ACCESS:     634019  HIT:     633929  MISS:         90
LLC TRANSLATION ACCESS:         44  HIT:         11  MISS:         33
LLC PREFETCH  REQUESTED:          0  ISSUED:          0  USEFUL:          0  USELESS:          0
LLC AVERAGE MISS LATENCY: 233.421 cycles

DRAM Statistics
 CHANNEL 0
 RQ ROW_BUFFER_HIT:      55787  ROW_BUFFER_MISS:    1218711
 DBUS AVG_CONGESTED_CYCLE:    3.95664
 WQ ROW_BUFFER_HIT:       1017  ROW_BUFFER_MISS:     538527  FULL:          0


CPU 0 Branch Prediction Accuracy: 81.1279% MPKI: 35.6282 Average ROB Occupancy at Mispredict: 22.4077
Branch type MPKI
BRANCH_DIRECT_JUMP: 0
BRANCH_INDIRECT: 0
BRANCH_CONDITIONAL: 35.6282
BRANCH_DIRECT_CALL: 0
BRANCH_INDIRECT_CALL: 0
BRANCH_RETURN: 0
