./bin/champsim --warmup_instructions=25000000 --simulation_instructions=25000000 ./traces/sssp-3.trace.gz 

*** ChampSim Multicore Out-of-Order Simulator ***

Warmup Instructions: 25000000
Simulation Instructions: 25000000
Number of CPUs: 1
Off-chip DRAM Size: 4 GiB Channels: 1 Width: 64-bit Data Rate: 3200 MT/s

VirtualMemory physical capacity: 8588881920 num_ppages: 2096895
VirtualMemory page size: 4096 log2_page_size: 12

CPU 0 runs ./traces/sssp-3.trace.gz
CPU 0 Bimodal branch predictor
Basic BTB sets: 1024 ways: 8 indirect buffer size: 4096 RAS size: 64
cpu0_L2C Stream Plus Stride Prefetcher 3 64
WARNING: The extended signature CACHE::prefetch_line(ip, base_addr, pf_addr, fill_this_level, prefetch_metadata) is deprecated.
WARNING: Use CACHE::prefetch_line(pf_addr, fill_this_level, prefetch_metadata) instead.
Heartbeat CPU 0 instructions: 10000002 cycles: 2980406 heartbeat IPC: 3.35525 cumulative IPC: 3.35525 (Simulation time: 0 hr 0 min 50 sec) 
Heartbeat CPU 0 instructions: 20000001 cycles: 6362355 heartbeat IPC: 2.95687 cumulative IPC: 3.14349 (Simulation time: 0 hr 1 min 50 sec) 

Warmup complete CPU 0 instructions: 25000004 cycles: 8126936 (Simulation time: 0 hr 2 min 25 sec) 

Heartbeat CPU 0 instructions: 30000002 cycles: 25591750 heartbeat IPC: 0.520037 cumulative IPC: 0.28629 (Simulation time: 0 hr 3 min 3 sec) 
Heartbeat CPU 0 instructions: 40000001 cycles: 61785560 heartbeat IPC: 0.27629 cumulative IPC: 0.279545 (Simulation time: 0 hr 4 min 33 sec) 
Heartbeat CPU 0 instructions: 50000002 cycles: 97347322 heartbeat IPC: 0.281201 cumulative IPC: 0.280205 (Simulation time: 0 hr 5 min 58 sec) 
Finished CPU 0 instructions: 25000000 cycles: 89220404 cumulative IPC: 0.280205 (Simulation time: 0 hr 5 min 58 sec) 

ChampSim completed all CPUs

Region of Interest Statistics

CPU 0 cumulative IPC: 0.280205 instructions: 25000000 cycles: 89220404
cpu0_DTLB TOTAL     ACCESS:    6312952  HIT:    5875374  MISS:     437578
cpu0_DTLB LOAD      ACCESS:    5888208  HIT:    5608078  MISS:     280130
cpu0_DTLB RFO       ACCESS:     424744  HIT:     267296  MISS:     157448
cpu0_DTLB PREFETCH  ACCESS:          0  HIT:          0  MISS:          0
cpu0_DTLB WRITEBACK ACCESS:          0  HIT:          0  MISS:          0
cpu0_DTLB TRANSLATION ACCESS:          0  HIT:          0  MISS:          0
cpu0_DTLB PREFETCH  REQUESTED:          0  ISSUED:          0  USEFUL:          0  USELESS:          0
cpu0_DTLB AVERAGE MISS LATENCY: 11.2992 cycles
cpu0_ITLB TOTAL     ACCESS:    2383384  HIT:    2383384  MISS:          0
cpu0_ITLB LOAD      ACCESS:    2383384  HIT:    2383384  MISS:          0
cpu0_ITLB RFO       ACCESS:          0  HIT:          0  MISS:          0
cpu0_ITLB PREFETCH  ACCESS:          0  HIT:          0  MISS:          0
cpu0_ITLB WRITEBACK ACCESS:          0  HIT:          0  MISS:          0
cpu0_ITLB TRANSLATION ACCESS:          0  HIT:          0  MISS:          0
cpu0_ITLB PREFETCH  REQUESTED:          0  ISSUED:          0  USEFUL:          0  USELESS:          0
cpu0_ITLB AVERAGE MISS LATENCY: -nan cycles
cpu0_L1I TOTAL     ACCESS:      10710  HIT:      10710  MISS:          0
cpu0_L1I LOAD      ACCESS:      10710  HIT:      10710  MISS:          0
cpu0_L1I RFO       ACCESS:          0  HIT:          0  MISS:          0
cpu0_L1I PREFETCH  ACCESS:          0  HIT:          0  MISS:          0
cpu0_L1I WRITEBACK ACCESS:          0  HIT:          0  MISS:          0
cpu0_L1I TRANSLATION ACCESS:          0  HIT:          0  MISS:          0
cpu0_L1I PREFETCH  REQUESTED:          0  ISSUED:          0  USEFUL:          0  USELESS:          0
cpu0_L1I AVERAGE MISS LATENCY: -nan cycles
cpu0_STLB TOTAL     ACCESS:     437578  HIT:     432148  MISS:       5430
cpu0_STLB LOAD      ACCESS:     280130  HIT:     275446  MISS:       4684
cpu0_STLB RFO       ACCESS:     157448  HIT:     156702  MISS:        746
cpu0_STLB PREFETCH  ACCESS:          0  HIT:          0  MISS:          0
cpu0_STLB WRITEBACK ACCESS:          0  HIT:          0  MISS:          0
cpu0_STLB TRANSLATION ACCESS:          0  HIT:          0  MISS:          0
cpu0_STLB PREFETCH  REQUESTED:          0  ISSUED:          0  USEFUL:          0  USELESS:          0
cpu0_STLB AVERAGE MISS LATENCY: 178.129 cycles
cpu0_L1D TOTAL     ACCESS:    6194070  HIT:    4951885  MISS:    1242185
cpu0_L1D LOAD      ACCESS:    5558453  HIT:    4432657  MISS:    1125796
cpu0_L1D RFO       ACCESS:     630217  HIT:     515778  MISS:     114439
cpu0_L1D PREFETCH  ACCESS:          0  HIT:          0  MISS:          0
cpu0_L1D WRITEBACK ACCESS:          0  HIT:          0  MISS:          0
cpu0_L1D TRANSLATION ACCESS:       5400  HIT:       3450  MISS:       1950
cpu0_L1D PREFETCH  REQUESTED:          0  ISSUED:          0  USEFUL:          0  USELESS:          0
cpu0_L1D AVERAGE MISS LATENCY: 123.702 cycles
cpu0_L2C TOTAL     ACCESS:    1748053  HIT:     745067  MISS:    1002986
cpu0_L2C LOAD      ACCESS:    1125790  HIT:     194743  MISS:     931047
cpu0_L2C RFO       ACCESS:     114432  HIT:      79208  MISS:      35224
cpu0_L2C PREFETCH  ACCESS:     157808  HIT:     122534  MISS:      35274
cpu0_L2C WRITEBACK ACCESS:     348073  HIT:     347093  MISS:        980
cpu0_L2C TRANSLATION ACCESS:       1950  HIT:       1489  MISS:        461
cpu0_L2C PREFETCH  REQUESTED:     178875  ISSUED:     164232  USEFUL:      12840  USELESS:      22421
cpu0_L2C AVERAGE MISS LATENCY: 147.26 cycles
LLC TOTAL     ACCESS:    1235592  HIT:     627308  MISS:     608284
LLC LOAD      ACCESS:     931047  HIT:     380519  MISS:     550528
LLC RFO       ACCESS:      35224  HIT:       9608  MISS:      25616
LLC PREFETCH  ACCESS:      35327  HIT:       4927  MISS:      30400
LLC WRITEBACK ACCESS:     233533  HIT:     231992  MISS:       1541
LLC TRANSLATION ACCESS:        461  HIT:        262  MISS:        199
LLC PREFETCH  REQUESTED:          0  ISSUED:          0  USEFUL:          0  USELESS:          0
LLC AVERAGE MISS LATENCY: 208.303 cycles

DRAM Statistics
 CHANNEL 0
 RQ ROW_BUFFER_HIT:      45663  ROW_BUFFER_MISS:     560799
 DBUS AVG_CONGESTED_CYCLE:     3.9512
 WQ ROW_BUFFER_HIT:      40878  ROW_BUFFER_MISS:     162457  FULL:          0


CPU 0 Branch Prediction Accuracy: 91.1986% MPKI: 12.9566 Average ROB Occupancy at Mispredict: 52.2042
Branch type MPKI
BRANCH_DIRECT_JUMP: 0
BRANCH_INDIRECT: 0
BRANCH_CONDITIONAL: 12.9566
BRANCH_DIRECT_CALL: 0
BRANCH_INDIRECT_CALL: 0
BRANCH_RETURN: 0
