./bin/champsim --warmup_instructions=25000000 --simulation_instructions=25000000 ./traces/sssp-3.trace.gz 

*** ChampSim Multicore Out-of-Order Simulator ***

Warmup Instructions: 25000000
Simulation Instructions: 25000000
Number of CPUs: 1
Off-chip DRAM Size: 4 GiB Channels: 1 Width: 64-bit Data Rate: 3200 MT/s

VirtualMemory physical capacity: 8588881920 num_ppages: 2096895
VirtualMemory page size: 4096 log2_page_size: 12

CPU 0 runs ./traces/sssp-3.trace.gz
CPU 0 Bimodal branch predictor
Basic BTB sets: 1024 ways: 8 indirect buffer size: 4096 RAS size: 64
cpu0_L2C Stream Plus Stride Prefetcher 3 16
WARNING: The extended signature CACHE::prefetch_line(ip, base_addr, pf_addr, fill_this_level, prefetch_metadata) is deprecated.
WARNING: Use CACHE::prefetch_line(pf_addr, fill_this_level, prefetch_metadata) instead.
Heartbeat CPU 0 instructions: 10000002 cycles: 2980409 heartbeat IPC: 3.35524 cumulative IPC: 3.35524 (Simulation time: 0 hr 0 min 46 sec) 
Heartbeat CPU 0 instructions: 20000001 cycles: 6362361 heartbeat IPC: 2.95687 cumulative IPC: 3.14349 (Simulation time: 0 hr 1 min 42 sec) 

Warmup complete CPU 0 instructions: 25000004 cycles: 8126943 (Simulation time: 0 hr 2 min 12 sec) 

Heartbeat CPU 0 instructions: 30000002 cycles: 25555960 heartbeat IPC: 0.521007 cumulative IPC: 0.286878 (Simulation time: 0 hr 3 min 9 sec) 
Heartbeat CPU 0 instructions: 40000001 cycles: 61615930 heartbeat IPC: 0.277316 cumulative IPC: 0.280432 (Simulation time: 0 hr 4 min 45 sec) 
Heartbeat CPU 0 instructions: 50000002 cycles: 97099447 heartbeat IPC: 0.281821 cumulative IPC: 0.280986 (Simulation time: 0 hr 6 min 1 sec) 
Finished CPU 0 instructions: 25000000 cycles: 88972522 cumulative IPC: 0.280986 (Simulation time: 0 hr 6 min 1 sec) 

ChampSim completed all CPUs

Region of Interest Statistics

CPU 0 cumulative IPC: 0.280986 instructions: 25000000 cycles: 88972522
cpu0_DTLB TOTAL     ACCESS:    6313087  HIT:    5875508  MISS:     437579
cpu0_DTLB LOAD      ACCESS:    5888372  HIT:    5608242  MISS:     280130
cpu0_DTLB RFO       ACCESS:     424715  HIT:     267266  MISS:     157449
cpu0_DTLB PREFETCH  ACCESS:          0  HIT:          0  MISS:          0
cpu0_DTLB WRITEBACK ACCESS:          0  HIT:          0  MISS:          0
cpu0_DTLB TRANSLATION ACCESS:          0  HIT:          0  MISS:          0
cpu0_DTLB PREFETCH  REQUESTED:          0  ISSUED:          0  USEFUL:          0  USELESS:          0
cpu0_DTLB AVERAGE MISS LATENCY: 11.3074 cycles
cpu0_ITLB TOTAL     ACCESS:    2383390  HIT:    2383390  MISS:          0
cpu0_ITLB LOAD      ACCESS:    2383390  HIT:    2383390  MISS:          0
cpu0_ITLB RFO       ACCESS:          0  HIT:          0  MISS:          0
cpu0_ITLB PREFETCH  ACCESS:          0  HIT:          0  MISS:          0
cpu0_ITLB WRITEBACK ACCESS:          0  HIT:          0  MISS:          0
cpu0_ITLB TRANSLATION ACCESS:          0  HIT:          0  MISS:          0
cpu0_ITLB PREFETCH  REQUESTED:          0  ISSUED:          0  USEFUL:          0  USELESS:          0
cpu0_ITLB AVERAGE MISS LATENCY: -nan cycles
cpu0_L1I TOTAL     ACCESS:      10715  HIT:      10715  MISS:          0
cpu0_L1I LOAD      ACCESS:      10715  HIT:      10715  MISS:          0
cpu0_L1I RFO       ACCESS:          0  HIT:          0  MISS:          0
cpu0_L1I PREFETCH  ACCESS:          0  HIT:          0  MISS:          0
cpu0_L1I WRITEBACK ACCESS:          0  HIT:          0  MISS:          0
cpu0_L1I TRANSLATION ACCESS:          0  HIT:          0  MISS:          0
cpu0_L1I PREFETCH  REQUESTED:          0  ISSUED:          0  USEFUL:          0  USELESS:          0
cpu0_L1I AVERAGE MISS LATENCY: -nan cycles
cpu0_STLB TOTAL     ACCESS:     437579  HIT:     432149  MISS:       5430
cpu0_STLB LOAD      ACCESS:     280130  HIT:     275445  MISS:       4685
cpu0_STLB RFO       ACCESS:     157449  HIT:     156704  MISS:        745
cpu0_STLB PREFETCH  ACCESS:          0  HIT:          0  MISS:          0
cpu0_STLB WRITEBACK ACCESS:          0  HIT:          0  MISS:          0
cpu0_STLB TRANSLATION ACCESS:          0  HIT:          0  MISS:          0
cpu0_STLB PREFETCH  REQUESTED:          0  ISSUED:          0  USEFUL:          0  USELESS:          0
cpu0_STLB AVERAGE MISS LATENCY: 178.793 cycles
cpu0_L1D TOTAL     ACCESS:    6194032  HIT:    4951845  MISS:    1242187
cpu0_L1D LOAD      ACCESS:    5558499  HIT:    4432703  MISS:    1125796
cpu0_L1D RFO       ACCESS:     630132  HIT:     515691  MISS:     114441
cpu0_L1D PREFETCH  ACCESS:          0  HIT:          0  MISS:          0
cpu0_L1D WRITEBACK ACCESS:          0  HIT:          0  MISS:          0
cpu0_L1D TRANSLATION ACCESS:       5401  HIT:       3451  MISS:       1950
cpu0_L1D PREFETCH  REQUESTED:          0  ISSUED:          0  USEFUL:          0  USELESS:          0
cpu0_L1D AVERAGE MISS LATENCY: 123.144 cycles
cpu0_L2C TOTAL     ACCESS:    1704291  HIT:     705383  MISS:     998908
cpu0_L2C LOAD      ACCESS:    1125790  HIT:     195389  MISS:     930401
cpu0_L2C RFO       ACCESS:     114435  HIT:      79224  MISS:      35211
cpu0_L2C PREFETCH  ACCESS:     114043  HIT:      82175  MISS:      31868
cpu0_L2C WRITEBACK ACCESS:     348073  HIT:     347108  MISS:        965
cpu0_L2C TRANSLATION ACCESS:       1950  HIT:       1487  MISS:        463
cpu0_L2C PREFETCH  REQUESTED:     130260  ISSUED:     118859  USEFUL:      12442  USELESS:      19421
cpu0_L2C AVERAGE MISS LATENCY: 146.376 cycles
LLC TOTAL     ACCESS:    1231450  HIT:     627858  MISS:     603592
LLC LOAD      ACCESS:     930401  HIT:     381457  MISS:     548944
LLC RFO       ACCESS:      35211  HIT:       9626  MISS:      25585
LLC PREFETCH  ACCESS:      31909  HIT:       4571  MISS:      27338
LLC WRITEBACK ACCESS:     233466  HIT:     231942  MISS:       1524
LLC TRANSLATION ACCESS:        463  HIT:        262  MISS:        201
LLC PREFETCH  REQUESTED:          0  ISSUED:          0  USEFUL:          0  USELESS:          0
LLC AVERAGE MISS LATENCY: 207.586 cycles

DRAM Statistics
 CHANNEL 0
 RQ ROW_BUFFER_HIT:      45569  ROW_BUFFER_MISS:     556186
 DBUS AVG_CONGESTED_CYCLE:     3.9499
 WQ ROW_BUFFER_HIT:      42523  ROW_BUFFER_MISS:     160661  FULL:          0


CPU 0 Branch Prediction Accuracy: 91.1986% MPKI: 12.9566 Average ROB Occupancy at Mispredict: 52.2026
Branch type MPKI
BRANCH_DIRECT_JUMP: 0
BRANCH_INDIRECT: 0
BRANCH_CONDITIONAL: 12.9566
BRANCH_DIRECT_CALL: 0
BRANCH_INDIRECT_CALL: 0
BRANCH_RETURN: 0