./bin/champsim --warmup_instructions=25000000 --simulation_instructions=25000000 ./traces/sssp-3.trace.gz 

*** ChampSim Multicore Out-of-Order Simulator ***

Warmup Instructions: 25000000
Simulation Instructions: 25000000
Number of CPUs: 1
Off-chip DRAM Size: 4 GiB Channels: 1 Width: 64-bit Data Rate: 3200 MT/s

VirtualMemory physical capacity: 8588881920 num_ppages: 2096895
VirtualMemory page size: 4096 log2_page_size: 12

CPU 0 runs ./traces/sssp-3.trace.gz
CPU 0 Bimodal branch predictor
Basic BTB sets: 1024 ways: 8 indirect buffer size: 4096 RAS size: 64
cpu0_L2C Stream Plus Stride Prefetcher 1 16
WARNING: The extended signature CACHE::prefetch_line(ip, base_addr, pf_addr, fill_this_level, prefetch_metadata) is deprecated.
WARNING: Use CACHE::prefetch_line(pf_addr, fill_this_level, prefetch_metadata) instead.
Heartbeat CPU 0 instructions: 10000002 cycles: 2980409 heartbeat IPC: 3.35524 cumulative IPC: 3.35524 (Simulation time: 0 hr 0 min 50 sec) 
Heartbeat CPU 0 instructions: 20000001 cycles: 6362361 heartbeat IPC: 2.95687 cumulative IPC: 3.14349 (Simulation time: 0 hr 1 min 52 sec) 

Warmup complete CPU 0 instructions: 25000004 cycles: 8126943 (Simulation time: 0 hr 2 min 30 sec) 

Heartbeat CPU 0 instructions: 30000002 cycles: 25534875 heartbeat IPC: 0.52158 cumulative IPC: 0.287225 (Simulation time: 0 hr 3 min 33 sec) 
Heartbeat CPU 0 instructions: 40000001 cycles: 61527925 heartbeat IPC: 0.277831 cumulative IPC: 0.280894 (Simulation time: 0 hr 4 min 52 sec) 
Heartbeat CPU 0 instructions: 50000002 cycles: 96964041 heartbeat IPC: 0.282198 cumulative IPC: 0.281414 (Simulation time: 0 hr 6 min 9 sec) 
Finished CPU 0 instructions: 25000000 cycles: 88837116 cumulative IPC: 0.281414 (Simulation time: 0 hr 6 min 9 sec) 

ChampSim completed all CPUs

Region of Interest Statistics

CPU 0 cumulative IPC: 0.281414 instructions: 25000000 cycles: 88837116
cpu0_DTLB TOTAL     ACCESS:    6313117  HIT:    5875538  MISS:     437579
cpu0_DTLB LOAD      ACCESS:    5888353  HIT:    5608224  MISS:     280129
cpu0_DTLB RFO       ACCESS:     424764  HIT:     267314  MISS:     157450
cpu0_DTLB PREFETCH  ACCESS:          0  HIT:          0  MISS:          0
cpu0_DTLB WRITEBACK ACCESS:          0  HIT:          0  MISS:          0
cpu0_DTLB TRANSLATION ACCESS:          0  HIT:          0  MISS:          0
cpu0_DTLB PREFETCH  REQUESTED:          0  ISSUED:          0  USEFUL:          0  USELESS:          0
cpu0_DTLB AVERAGE MISS LATENCY: 11.3409 cycles
cpu0_ITLB TOTAL     ACCESS:    2383402  HIT:    2383402  MISS:          0
cpu0_ITLB LOAD      ACCESS:    2383402  HIT:    2383402  MISS:          0
cpu0_ITLB RFO       ACCESS:          0  HIT:          0  MISS:          0
cpu0_ITLB PREFETCH  ACCESS:          0  HIT:          0  MISS:          0
cpu0_ITLB WRITEBACK ACCESS:          0  HIT:          0  MISS:          0
cpu0_ITLB TRANSLATION ACCESS:          0  HIT:          0  MISS:          0
cpu0_ITLB PREFETCH  REQUESTED:          0  ISSUED:          0  USEFUL:          0  USELESS:          0
cpu0_ITLB AVERAGE MISS LATENCY: -nan cycles
cpu0_L1I TOTAL     ACCESS:      10708  HIT:      10708  MISS:          0
cpu0_L1I LOAD      ACCESS:      10708  HIT:      10708  MISS:          0
cpu0_L1I RFO       ACCESS:          0  HIT:          0  MISS:          0
cpu0_L1I PREFETCH  ACCESS:          0  HIT:          0  MISS:          0
cpu0_L1I WRITEBACK ACCESS:          0  HIT:          0  MISS:          0
cpu0_L1I TRANSLATION ACCESS:          0  HIT:          0  MISS:          0
cpu0_L1I PREFETCH  REQUESTED:          0  ISSUED:          0  USEFUL:          0  USELESS:          0
cpu0_L1I AVERAGE MISS LATENCY: -nan cycles
cpu0_STLB TOTAL     ACCESS:     437579  HIT:     432149  MISS:       5430
cpu0_STLB LOAD      ACCESS:     280129  HIT:     275445  MISS:       4684
cpu0_STLB RFO       ACCESS:     157450  HIT:     156704  MISS:        746
cpu0_STLB PREFETCH  ACCESS:          0  HIT:          0  MISS:          0
cpu0_STLB WRITEBACK ACCESS:          0  HIT:          0  MISS:          0
cpu0_STLB TRANSLATION ACCESS:          0  HIT:          0  MISS:          0
cpu0_STLB PREFETCH  REQUESTED:          0  ISSUED:          0  USEFUL:          0  USELESS:          0
cpu0_STLB AVERAGE MISS LATENCY: 181.488 cycles
cpu0_L1D TOTAL     ACCESS:    6193960  HIT:    4951773  MISS:    1242187
cpu0_L1D LOAD      ACCESS:    5558470  HIT:    4432674  MISS:    1125796
cpu0_L1D RFO       ACCESS:     630089  HIT:     515648  MISS:     114441
cpu0_L1D PREFETCH  ACCESS:          0  HIT:          0  MISS:          0
cpu0_L1D WRITEBACK ACCESS:          0  HIT:          0  MISS:          0
cpu0_L1D TRANSLATION ACCESS:       5401  HIT:       3451  MISS:       1950
cpu0_L1D PREFETCH  REQUESTED:          0  ISSUED:          0  USEFUL:          0  USELESS:          0
cpu0_L1D AVERAGE MISS LATENCY: 122.823 cycles
cpu0_L2C TOTAL     ACCESS:    1760917  HIT:     763365  MISS:     997552
cpu0_L2C LOAD      ACCESS:    1125790  HIT:     195472  MISS:     930318
cpu0_L2C RFO       ACCESS:     114435  HIT:      79228  MISS:      35207
cpu0_L2C PREFETCH  ACCESS:     170669  HIT:     140069  MISS:      30600
cpu0_L2C WRITEBACK ACCESS:     348073  HIT:     347109  MISS:        964
cpu0_L2C TRANSLATION ACCESS:       1950  HIT:       1487  MISS:        463
cpu0_L2C PREFETCH  REQUESTED:     191166  ISSUED:     176199  USEFUL:      11765  USELESS:      18828
cpu0_L2C AVERAGE MISS LATENCY: 145.815 cycles
LLC TOTAL     ACCESS:    1230088  HIT:     628274  MISS:     601814
LLC LOAD      ACCESS:     930318  HIT:     381978  MISS:     548340
LLC RFO       ACCESS:      35207  HIT:       9624  MISS:      25583
LLC PREFETCH  ACCESS:      30646  HIT:       4470  MISS:      26176
LLC WRITEBACK ACCESS:     233454  HIT:     231940  MISS:       1514
LLC TRANSLATION ACCESS:        463  HIT:        262  MISS:        201
LLC PREFETCH  REQUESTED:          0  ISSUED:          0  USEFUL:          0  USELESS:          0
LLC AVERAGE MISS LATENCY: 207.014 cycles

DRAM Statistics
 CHANNEL 0
 RQ ROW_BUFFER_HIT:      45706  ROW_BUFFER_MISS:     554253
 DBUS AVG_CONGESTED_CYCLE:    3.94982
 WQ ROW_BUFFER_HIT:      44063  ROW_BUFFER_MISS:     159010  FULL:          0


CPU 0 Branch Prediction Accuracy: 91.1986% MPKI: 12.9566 Average ROB Occupancy at Mispredict: 52.2063
Branch type MPKI
BRANCH_DIRECT_JUMP: 0
BRANCH_INDIRECT: 0
BRANCH_CONDITIONAL: 12.9566
BRANCH_DIRECT_CALL: 0
BRANCH_INDIRECT_CALL: 0
BRANCH_RETURN: 0
