./bin/champsim --warmup_instructions=25000000 --simulation_instructions=25000000 ./traces/sssp-3.trace.gz 

*** ChampSim Multicore Out-of-Order Simulator ***

Warmup Instructions: 25000000
Simulation Instructions: 25000000
Number of CPUs: 1
Off-chip DRAM Size: 4 GiB Channels: 1 Width: 64-bit Data Rate: 3200 MT/s

VirtualMemory physical capacity: 8588881920 num_ppages: 2096895
VirtualMemory page size: 4096 log2_page_size: 12

CPU 0 runs ./traces/sssp-3.trace.gz
CPU 0 Bimodal branch predictor
Basic BTB sets: 1024 ways: 8 indirect buffer size: 4096 RAS size: 64
cpu0_L2C Stream Plus Stride Prefetcher 2 4
WARNING: The extended signature CACHE::prefetch_line(ip, base_addr, pf_addr, fill_this_level, prefetch_metadata) is deprecated.
WARNING: Use CACHE::prefetch_line(pf_addr, fill_this_level, prefetch_metadata) instead.
Heartbeat CPU 0 instructions: 10000002 cycles: 2980404 heartbeat IPC: 3.35525 cumulative IPC: 3.35525 (Simulation time: 0 hr 0 min 48 sec) 
Heartbeat CPU 0 instructions: 20000001 cycles: 6362355 heartbeat IPC: 2.95687 cumulative IPC: 3.14349 (Simulation time: 0 hr 1 min 47 sec) 

Warmup complete CPU 0 instructions: 25000004 cycles: 8126938 (Simulation time: 0 hr 2 min 18 sec) 

Heartbeat CPU 0 instructions: 30000002 cycles: 25435568 heartbeat IPC: 0.524296 cumulative IPC: 0.288873 (Simulation time: 0 hr 2 min 57 sec) 
Heartbeat CPU 0 instructions: 40000001 cycles: 60945496 heartbeat IPC: 0.281611 cumulative IPC: 0.283991 (Simulation time: 0 hr 4 min 44 sec) 
Heartbeat CPU 0 instructions: 50000002 cycles: 95957592 heartbeat IPC: 0.285616 cumulative IPC: 0.284639 (Simulation time: 0 hr 6 min 15 sec) 
Finished CPU 0 instructions: 25000000 cycles: 87830672 cumulative IPC: 0.284639 (Simulation time: 0 hr 6 min 15 sec) 

ChampSim completed all CPUs

Region of Interest Statistics

CPU 0 cumulative IPC: 0.284639 instructions: 25000000 cycles: 87830672
cpu0_DTLB TOTAL     ACCESS:    6313152  HIT:    5875572  MISS:     437580
cpu0_DTLB LOAD      ACCESS:    5888378  HIT:    5608247  MISS:     280131
cpu0_DTLB RFO       ACCESS:     424774  HIT:     267325  MISS:     157449
cpu0_DTLB PREFETCH  ACCESS:          0  HIT:          0  MISS:          0
cpu0_DTLB WRITEBACK ACCESS:          0  HIT:          0  MISS:          0
cpu0_DTLB TRANSLATION ACCESS:          0  HIT:          0  MISS:          0
cpu0_DTLB PREFETCH  REQUESTED:          0  ISSUED:          0  USEFUL:          0  USELESS:          0
cpu0_DTLB AVERAGE MISS LATENCY: 11.31 cycles
cpu0_ITLB TOTAL     ACCESS:    2383400  HIT:    2383400  MISS:          0
cpu0_ITLB LOAD      ACCESS:    2383400  HIT:    2383400  MISS:          0
cpu0_ITLB RFO       ACCESS:          0  HIT:          0  MISS:          0
cpu0_ITLB PREFETCH  ACCESS:          0  HIT:          0  MISS:          0
cpu0_ITLB WRITEBACK ACCESS:          0  HIT:          0  MISS:          0
cpu0_ITLB TRANSLATION ACCESS:          0  HIT:          0  MISS:          0
cpu0_ITLB PREFETCH  REQUESTED:          0  ISSUED:          0  USEFUL:          0  USELESS:          0
cpu0_ITLB AVERAGE MISS LATENCY: -nan cycles
cpu0_L1I TOTAL     ACCESS:      10710  HIT:      10710  MISS:          0
cpu0_L1I LOAD      ACCESS:      10710  HIT:      10710  MISS:          0
cpu0_L1I RFO       ACCESS:          0  HIT:          0  MISS:          0
cpu0_L1I PREFETCH  ACCESS:          0  HIT:          0  MISS:          0
cpu0_L1I WRITEBACK ACCESS:          0  HIT:          0  MISS:          0
cpu0_L1I TRANSLATION ACCESS:          0  HIT:          0  MISS:          0
cpu0_L1I PREFETCH  REQUESTED:          0  ISSUED:          0  USEFUL:          0  USELESS:          0
cpu0_L1I AVERAGE MISS LATENCY: -nan cycles
cpu0_STLB TOTAL     ACCESS:     437580  HIT:     432150  MISS:       5430
cpu0_STLB LOAD      ACCESS:     280131  HIT:     275446  MISS:       4685
cpu0_STLB RFO       ACCESS:     157449  HIT:     156704  MISS:        745
cpu0_STLB PREFETCH  ACCESS:          0  HIT:          0  MISS:          0
cpu0_STLB WRITEBACK ACCESS:          0  HIT:          0  MISS:          0
cpu0_STLB TRANSLATION ACCESS:          0  HIT:          0  MISS:          0
cpu0_STLB PREFETCH  REQUESTED:          0  ISSUED:          0  USEFUL:          0  USELESS:          0
cpu0_STLB AVERAGE MISS LATENCY: 178.999 cycles
cpu0_L1D TOTAL     ACCESS:    6193852  HIT:    4951669  MISS:    1242183
cpu0_L1D LOAD      ACCESS:    5558353  HIT:    4432557  MISS:    1125796
cpu0_L1D RFO       ACCESS:     630098  HIT:     515661  MISS:     114437
cpu0_L1D PREFETCH  ACCESS:          0  HIT:          0  MISS:          0
cpu0_L1D WRITEBACK ACCESS:          0  HIT:          0  MISS:          0
cpu0_L1D TRANSLATION ACCESS:       5401  HIT:       3451  MISS:       1950
cpu0_L1D PREFETCH  REQUESTED:          0  ISSUED:          0  USEFUL:          0  USELESS:          0
cpu0_L1D AVERAGE MISS LATENCY: 120.482 cycles
cpu0_L2C TOTAL     ACCESS:    1691147  HIT:     710296  MISS:     980851
cpu0_L2C LOAD      ACCESS:    1125790  HIT:     197217  MISS:     928573
cpu0_L2C RFO       ACCESS:     114431  HIT:      79417  MISS:      35014
cpu0_L2C PREFETCH  ACCESS:     100906  HIT:      85028  MISS:      15878
cpu0_L2C WRITEBACK ACCESS:     348070  HIT:     347143  MISS:        927
cpu0_L2C TRANSLATION ACCESS:       1950  HIT:       1491  MISS:        459
cpu0_L2C PREFETCH  REQUESTED:     113543  ISSUED:     104695  USEFUL:       8876  USELESS:       7010
cpu0_L2C AVERAGE MISS LATENCY: 141.897 cycles
LLC TOTAL     ACCESS:    1213200  HIT:     630755  MISS:     582445
LLC LOAD      ACCESS:     928573  HIT:     386955  MISS:     541618
LLC RFO       ACCESS:      35014  HIT:       9510  MISS:      25504
LLC PREFETCH  ACCESS:      15984  HIT:       2342  MISS:      13642
LLC WRITEBACK ACCESS:     233170  HIT:     231690  MISS:       1480
LLC TRANSLATION ACCESS:        459  HIT:        258  MISS:        201
LLC PREFETCH  REQUESTED:          0  ISSUED:          0  USEFUL:          0  USELESS:          0
LLC AVERAGE MISS LATENCY: 203.778 cycles

DRAM Statistics
 CHANNEL 0
 RQ ROW_BUFFER_HIT:      45759  ROW_BUFFER_MISS:     534943
 DBUS AVG_CONGESTED_CYCLE:    3.94747
 WQ ROW_BUFFER_HIT:      49999  ROW_BUFFER_MISS:     151959  FULL:          0


CPU 0 Branch Prediction Accuracy: 91.1986% MPKI: 12.9566 Average ROB Occupancy at Mispredict: 52.2116
Branch type MPKI
BRANCH_DIRECT_JUMP: 0
BRANCH_INDIRECT: 0
BRANCH_CONDITIONAL: 12.9566
BRANCH_DIRECT_CALL: 0
BRANCH_INDIRECT_CALL: 0
BRANCH_RETURN: 0
