./bin/champsim --warmup_instructions=25000000 --simulation_instructions=25000000 ./traces/sssp-3.trace.gz 

*** ChampSim Multicore Out-of-Order Simulator ***

Warmup Instructions: 25000000
Simulation Instructions: 25000000
Number of CPUs: 1
Off-chip DRAM Size: 4 GiB Channels: 1 Width: 64-bit Data Rate: 3200 MT/s

VirtualMemory physical capacity: 8588881920 num_ppages: 2096895
VirtualMemory page size: 4096 log2_page_size: 12

CPU 0 runs ./traces/sssp-3.trace.gz
CPU 0 Bimodal branch predictor
Basic BTB sets: 1024 ways: 8 indirect buffer size: 4096 RAS size: 64
cpu0_L2C Stream Plus Stride Prefetcher 2 16
WARNING: The extended signature CACHE::prefetch_line(ip, base_addr, pf_addr, fill_this_level, prefetch_metadata) is deprecated.
WARNING: Use CACHE::prefetch_line(pf_addr, fill_this_level, prefetch_metadata) instead.
Heartbeat CPU 0 instructions: 10000002 cycles: 2980408 heartbeat IPC: 3.35525 cumulative IPC: 3.35525 (Simulation time: 0 hr 0 min 51 sec) 
Heartbeat CPU 0 instructions: 20000001 cycles: 6362360 heartbeat IPC: 2.95687 cumulative IPC: 3.14349 (Simulation time: 0 hr 1 min 43 sec) 

Warmup complete CPU 0 instructions: 25000004 cycles: 8126942 (Simulation time: 0 hr 2 min 14 sec) 

Heartbeat CPU 0 instructions: 30000002 cycles: 25586795 heartbeat IPC: 0.520171 cumulative IPC: 0.286371 (Simulation time: 0 hr 3 min 9 sec) 
Heartbeat CPU 0 instructions: 40000001 cycles: 61690910 heartbeat IPC: 0.276977 cumulative IPC: 0.280039 (Simulation time: 0 hr 4 min 29 sec) 
Heartbeat CPU 0 instructions: 50000002 cycles: 97211139 heartbeat IPC: 0.28153 cumulative IPC: 0.280633 (Simulation time: 0 hr 5 min 46 sec) 
Finished CPU 0 instructions: 25000000 cycles: 89084215 cumulative IPC: 0.280633 (Simulation time: 0 hr 5 min 46 sec) 

ChampSim completed all CPUs

Region of Interest Statistics

CPU 0 cumulative IPC: 0.280633 instructions: 25000000 cycles: 89084215
cpu0_DTLB TOTAL     ACCESS:    6313008  HIT:    5875428  MISS:     437580
cpu0_DTLB LOAD      ACCESS:    5888280  HIT:    5608150  MISS:     280130
cpu0_DTLB RFO       ACCESS:     424728  HIT:     267278  MISS:     157450
cpu0_DTLB PREFETCH  ACCESS:          0  HIT:          0  MISS:          0
cpu0_DTLB WRITEBACK ACCESS:          0  HIT:          0  MISS:          0
cpu0_DTLB TRANSLATION ACCESS:          0  HIT:          0  MISS:          0
cpu0_DTLB PREFETCH  REQUESTED:          0  ISSUED:          0  USEFUL:          0  USELESS:          0
cpu0_DTLB AVERAGE MISS LATENCY: 11.3443 cycles
cpu0_ITLB TOTAL     ACCESS:    2383397  HIT:    2383397  MISS:          0
cpu0_ITLB LOAD      ACCESS:    2383397  HIT:    2383397  MISS:          0
cpu0_ITLB RFO       ACCESS:          0  HIT:          0  MISS:          0
cpu0_ITLB PREFETCH  ACCESS:          0  HIT:          0  MISS:          0
cpu0_ITLB WRITEBACK ACCESS:          0  HIT:          0  MISS:          0
cpu0_ITLB TRANSLATION ACCESS:          0  HIT:          0  MISS:          0
cpu0_ITLB PREFETCH  REQUESTED:          0  ISSUED:          0  USEFUL:          0  USELESS:          0
cpu0_ITLB AVERAGE MISS LATENCY: -nan cycles
cpu0_L1I TOTAL     ACCESS:      10706  HIT:      10706  MISS:          0
cpu0_L1I LOAD      ACCESS:      10706  HIT:      10706  MISS:          0
cpu0_L1I RFO       ACCESS:          0  HIT:          0  MISS:          0
cpu0_L1I PREFETCH  ACCESS:          0  HIT:          0  MISS:          0
cpu0_L1I WRITEBACK ACCESS:          0  HIT:          0  MISS:          0
cpu0_L1I TRANSLATION ACCESS:          0  HIT:          0  MISS:          0
cpu0_L1I PREFETCH  REQUESTED:          0  ISSUED:          0  USEFUL:          0  USELESS:          0
cpu0_L1I AVERAGE MISS LATENCY: -nan cycles
cpu0_STLB TOTAL     ACCESS:     437580  HIT:     432150  MISS:       5430
cpu0_STLB LOAD      ACCESS:     280130  HIT:     275446  MISS:       4684
cpu0_STLB RFO       ACCESS:     157450  HIT:     156704  MISS:        746
cpu0_STLB PREFETCH  ACCESS:          0  HIT:          0  MISS:          0
cpu0_STLB WRITEBACK ACCESS:          0  HIT:          0  MISS:          0
cpu0_STLB TRANSLATION ACCESS:          0  HIT:          0  MISS:          0
cpu0_STLB PREFETCH  REQUESTED:          0  ISSUED:          0  USEFUL:          0  USELESS:          0
cpu0_STLB AVERAGE MISS LATENCY: 181.761 cycles
cpu0_L1D TOTAL     ACCESS:    6194021  HIT:    4951835  MISS:    1242186
cpu0_L1D LOAD      ACCESS:    5558432  HIT:    4432636  MISS:    1125796
cpu0_L1D RFO       ACCESS:     630188  HIT:     515748  MISS:     114440
cpu0_L1D PREFETCH  ACCESS:          0  HIT:          0  MISS:          0
cpu0_L1D WRITEBACK ACCESS:          0  HIT:          0  MISS:          0
cpu0_L1D TRANSLATION ACCESS:       5401  HIT:       3451  MISS:       1950
cpu0_L1D PREFETCH  REQUESTED:          0  ISSUED:          0  USEFUL:          0  USELESS:          0
cpu0_L1D AVERAGE MISS LATENCY: 123.625 cycles
cpu0_L2C TOTAL     ACCESS:    1734839  HIT:     733187  MISS:    1001652
cpu0_L2C LOAD      ACCESS:    1125790  HIT:     194913  MISS:     930877
cpu0_L2C RFO       ACCESS:     114434  HIT:      79191  MISS:      35243
cpu0_L2C PREFETCH  ACCESS:     144593  HIT:     110494  MISS:      34099
cpu0_L2C WRITEBACK ACCESS:     348072  HIT:     347103  MISS:        969
cpu0_L2C TRANSLATION ACCESS:       1950  HIT:       1486  MISS:        464
cpu0_L2C PREFETCH  REQUESTED:     163686  ISSUED:     150410  USEFUL:      13873  USELESS:      20225
cpu0_L2C AVERAGE MISS LATENCY: 147.092 cycles
LLC TOTAL     ACCESS:    1234361  HIT:     627327  MISS:     607034
LLC LOAD      ACCESS:     930877  HIT:     380870  MISS:     550007
LLC RFO       ACCESS:      35243  HIT:       9651  MISS:      25592
LLC PREFETCH  ACCESS:      34254  HIT:       4545  MISS:      29709
LLC WRITEBACK ACCESS:     233523  HIT:     231999  MISS:       1524
LLC TRANSLATION ACCESS:        464  HIT:        262  MISS:        202
LLC PREFETCH  REQUESTED:          0  ISSUED:          0  USEFUL:          0  USELESS:          0
LLC AVERAGE MISS LATENCY: 208.322 cycles

DRAM Statistics
 CHANNEL 0
 RQ ROW_BUFFER_HIT:      45702  ROW_BUFFER_MISS:     559485
 DBUS AVG_CONGESTED_CYCLE:     3.9497
 WQ ROW_BUFFER_HIT:      42837  ROW_BUFFER_MISS:     160491  FULL:          0


CPU 0 Branch Prediction Accuracy: 91.1986% MPKI: 12.9566 Average ROB Occupancy at Mispredict: 52.2037
Branch type MPKI
BRANCH_DIRECT_JUMP: 0
BRANCH_INDIRECT: 0
BRANCH_CONDITIONAL: 12.9566
BRANCH_DIRECT_CALL: 0
BRANCH_INDIRECT_CALL: 0
BRANCH_RETURN: 0
