./bin/champsim --warmup_instructions=25000000 --simulation_instructions=25000000 ./traces/sssp-3.trace.gz 

*** ChampSim Multicore Out-of-Order Simulator ***

Warmup Instructions: 25000000
Simulation Instructions: 25000000
Number of CPUs: 1
Off-chip DRAM Size: 4 GiB Channels: 1 Width: 64-bit Data Rate: 3200 MT/s

VirtualMemory physical capacity: 8588881920 num_ppages: 2096895
VirtualMemory page size: 4096 log2_page_size: 12

CPU 0 runs ./traces/sssp-3.trace.gz
CPU 0 Bimodal branch predictor
Basic BTB sets: 1024 ways: 8 indirect buffer size: 4096 RAS size: 64
cpu0_L2C Stream Plus Stride Prefetcher 2 64
WARNING: The extended signature CACHE::prefetch_line(ip, base_addr, pf_addr, fill_this_level, prefetch_metadata) is deprecated.
WARNING: Use CACHE::prefetch_line(pf_addr, fill_this_level, prefetch_metadata) instead.
Heartbeat CPU 0 instructions: 10000002 cycles: 2980406 heartbeat IPC: 3.35525 cumulative IPC: 3.35525 (Simulation time: 0 hr 0 min 52 sec) 
Heartbeat CPU 0 instructions: 20000001 cycles: 6362355 heartbeat IPC: 2.95687 cumulative IPC: 3.14349 (Simulation time: 0 hr 1 min 55 sec) 

Warmup complete CPU 0 instructions: 25000004 cycles: 8126936 (Simulation time: 0 hr 2 min 36 sec) 

Heartbeat CPU 0 instructions: 30000002 cycles: 25583443 heartbeat IPC: 0.520262 cumulative IPC: 0.286426 (Simulation time: 0 hr 3 min 22 sec) 
Heartbeat CPU 0 instructions: 40000001 cycles: 61747440 heartbeat IPC: 0.276518 cumulative IPC: 0.279744 (Simulation time: 0 hr 4 min 46 sec) 
Heartbeat CPU 0 instructions: 50000002 cycles: 97322942 heartbeat IPC: 0.281092 cumulative IPC: 0.280282 (Simulation time: 0 hr 6 min 6 sec) 
Finished CPU 0 instructions: 25000000 cycles: 89196024 cumulative IPC: 0.280282 (Simulation time: 0 hr 6 min 6 sec) 

ChampSim completed all CPUs

Region of Interest Statistics

CPU 0 cumulative IPC: 0.280282 instructions: 25000000 cycles: 89196024
cpu0_DTLB TOTAL     ACCESS:    6313134  HIT:    5875555  MISS:     437579
cpu0_DTLB LOAD      ACCESS:    5888393  HIT:    5608264  MISS:     280129
cpu0_DTLB RFO       ACCESS:     424741  HIT:     267291  MISS:     157450
cpu0_DTLB PREFETCH  ACCESS:          0  HIT:          0  MISS:          0
cpu0_DTLB WRITEBACK ACCESS:          0  HIT:          0  MISS:          0
cpu0_DTLB TRANSLATION ACCESS:          0  HIT:          0  MISS:          0
cpu0_DTLB PREFETCH  REQUESTED:          0  ISSUED:          0  USEFUL:          0  USELESS:          0
cpu0_DTLB AVERAGE MISS LATENCY: 11.3045 cycles
cpu0_ITLB TOTAL     ACCESS:    2383398  HIT:    2383398  MISS:          0
cpu0_ITLB LOAD      ACCESS:    2383398  HIT:    2383398  MISS:          0
cpu0_ITLB RFO       ACCESS:          0  HIT:          0  MISS:          0
cpu0_ITLB PREFETCH  ACCESS:          0  HIT:          0  MISS:          0
cpu0_ITLB WRITEBACK ACCESS:          0  HIT:          0  MISS:          0
cpu0_ITLB TRANSLATION ACCESS:          0  HIT:          0  MISS:          0
cpu0_ITLB PREFETCH  REQUESTED:          0  ISSUED:          0  USEFUL:          0  USELESS:          0
cpu0_ITLB AVERAGE MISS LATENCY: -nan cycles
cpu0_L1I TOTAL     ACCESS:      10709  HIT:      10709  MISS:          0
cpu0_L1I LOAD      ACCESS:      10709  HIT:      10709  MISS:          0
cpu0_L1I RFO       ACCESS:          0  HIT:          0  MISS:          0
cpu0_L1I PREFETCH  ACCESS:          0  HIT:          0  MISS:          0
cpu0_L1I WRITEBACK ACCESS:          0  HIT:          0  MISS:          0
cpu0_L1I TRANSLATION ACCESS:          0  HIT:          0  MISS:          0
cpu0_L1I PREFETCH  REQUESTED:          0  ISSUED:          0  USEFUL:          0  USELESS:          0
cpu0_L1I AVERAGE MISS LATENCY: -nan cycles
cpu0_STLB TOTAL     ACCESS:     437579  HIT:     432149  MISS:       5430
cpu0_STLB LOAD      ACCESS:     280129  HIT:     275445  MISS:       4684
cpu0_STLB RFO       ACCESS:     157450  HIT:     156704  MISS:        746
cpu0_STLB PREFETCH  ACCESS:          0  HIT:          0  MISS:          0
cpu0_STLB WRITEBACK ACCESS:          0  HIT:          0  MISS:          0
cpu0_STLB TRANSLATION ACCESS:          0  HIT:          0  MISS:          0
cpu0_STLB PREFETCH  REQUESTED:          0  ISSUED:          0  USEFUL:          0  USELESS:          0
cpu0_STLB AVERAGE MISS LATENCY: 178.557 cycles
cpu0_L1D TOTAL     ACCESS:    6194142  HIT:    4951955  MISS:    1242187
cpu0_L1D LOAD      ACCESS:    5558554  HIT:    4432755  MISS:    1125799
cpu0_L1D RFO       ACCESS:     630188  HIT:     515750  MISS:     114438
cpu0_L1D PREFETCH  ACCESS:          0  HIT:          0  MISS:          0
cpu0_L1D WRITEBACK ACCESS:          0  HIT:          0  MISS:          0
cpu0_L1D TRANSLATION ACCESS:       5400  HIT:       3450  MISS:       1950
cpu0_L1D PREFETCH  REQUESTED:          0  ISSUED:          0  USEFUL:          0  USELESS:          0
cpu0_L1D AVERAGE MISS LATENCY: 123.501 cycles
cpu0_L2C TOTAL     ACCESS:    1767256  HIT:     764608  MISS:    1002648
cpu0_L2C LOAD      ACCESS:    1125793  HIT:     194763  MISS:     931030
cpu0_L2C RFO       ACCESS:     114431  HIT:      79212  MISS:      35219
cpu0_L2C PREFETCH  ACCESS:     177009  HIT:     142050  MISS:      34959
cpu0_L2C WRITEBACK ACCESS:     348073  HIT:     347094  MISS:        979
cpu0_L2C TRANSLATION ACCESS:       1950  HIT:       1489  MISS:        461
cpu0_L2C PREFETCH  REQUESTED:     198735  ISSUED:     183228  USEFUL:      12543  USELESS:      22407
cpu0_L2C AVERAGE MISS LATENCY: 146.986 cycles
LLC TOTAL     ACCESS:    1235251  HIT:     627368  MISS:     607883
LLC LOAD      ACCESS:     931030  HIT:     380616  MISS:     550414
LLC RFO       ACCESS:      35219  HIT:       9603  MISS:      25616
LLC PREFETCH  ACCESS:      35008  HIT:       4891  MISS:      30117
LLC WRITEBACK ACCESS:     233533  HIT:     231996  MISS:       1537
LLC TRANSLATION ACCESS:        461  HIT:        262  MISS:        199
LLC PREFETCH  REQUESTED:          0  ISSUED:          0  USEFUL:          0  USELESS:          0
LLC AVERAGE MISS LATENCY: 207.904 cycles

DRAM Statistics
 CHANNEL 0
 RQ ROW_BUFFER_HIT:      46032  ROW_BUFFER_MISS:     560023
 DBUS AVG_CONGESTED_CYCLE:    3.95042
 WQ ROW_BUFFER_HIT:      41728  ROW_BUFFER_MISS:     161585  FULL:          0


CPU 0 Branch Prediction Accuracy: 91.1986% MPKI: 12.9566 Average ROB Occupancy at Mispredict: 52.2031
Branch type MPKI
BRANCH_DIRECT_JUMP: 0
BRANCH_INDIRECT: 0
BRANCH_CONDITIONAL: 12.9566
BRANCH_DIRECT_CALL: 0
BRANCH_INDIRECT_CALL: 0
BRANCH_RETURN: 0
