./bin/champsim --warmup_instructions=25000000 --simulation_instructions=25000000 ./traces/sssp-3.trace.gz 

*** ChampSim Multicore Out-of-Order Simulator ***

Warmup Instructions: 25000000
Simulation Instructions: 25000000
Number of CPUs: 1
Off-chip DRAM Size: 4 GiB Channels: 1 Width: 64-bit Data Rate: 3200 MT/s

VirtualMemory physical capacity: 8588881920 num_ppages: 2096895
VirtualMemory page size: 4096 log2_page_size: 12

CPU 0 runs ./traces/sssp-3.trace.gz
CPU 0 Bimodal branch predictor
Basic BTB sets: 1024 ways: 8 indirect buffer size: 4096 RAS size: 64
cpu0_L2C Stream Plus Stride Prefetcher 1 64
WARNING: The extended signature CACHE::prefetch_line(ip, base_addr, pf_addr, fill_this_level, prefetch_metadata) is deprecated.
WARNING: Use CACHE::prefetch_line(pf_addr, fill_this_level, prefetch_metadata) instead.
Heartbeat CPU 0 instructions: 10000002 cycles: 2980406 heartbeat IPC: 3.35525 cumulative IPC: 3.35525 (Simulation time: 0 hr 0 min 38 sec) 
Heartbeat CPU 0 instructions: 20000001 cycles: 6362356 heartbeat IPC: 2.95687 cumulative IPC: 3.14349 (Simulation time: 0 hr 1 min 35 sec) 

Warmup complete CPU 0 instructions: 25000004 cycles: 8126937 (Simulation time: 0 hr 2 min 4 sec) 

Heartbeat CPU 0 instructions: 30000002 cycles: 25566373 heartbeat IPC: 0.520724 cumulative IPC: 0.286706 (Simulation time: 0 hr 2 min 48 sec) 
Heartbeat CPU 0 instructions: 40000001 cycles: 61666800 heartbeat IPC: 0.277005 cumulative IPC: 0.280165 (Simulation time: 0 hr 4 min 24 sec) 
Heartbeat CPU 0 instructions: 50000002 cycles: 97169372 heartbeat IPC: 0.28167 cumulative IPC: 0.280765 (Simulation time: 0 hr 5 min 49 sec) 
Finished CPU 0 instructions: 25000000 cycles: 89042453 cumulative IPC: 0.280765 (Simulation time: 0 hr 5 min 49 sec) 

ChampSim completed all CPUs

Region of Interest Statistics

CPU 0 cumulative IPC: 0.280765 instructions: 25000000 cycles: 89042453
cpu0_DTLB TOTAL     ACCESS:    6313087  HIT:    5875508  MISS:     437579
cpu0_DTLB LOAD      ACCESS:    5888365  HIT:    5608235  MISS:     280130
cpu0_DTLB RFO       ACCESS:     424722  HIT:     267273  MISS:     157449
cpu0_DTLB PREFETCH  ACCESS:          0  HIT:          0  MISS:          0
cpu0_DTLB WRITEBACK ACCESS:          0  HIT:          0  MISS:          0
cpu0_DTLB TRANSLATION ACCESS:          0  HIT:          0  MISS:          0
cpu0_DTLB PREFETCH  REQUESTED:          0  ISSUED:          0  USEFUL:          0  USELESS:          0
cpu0_DTLB AVERAGE MISS LATENCY: 11.3175 cycles
cpu0_ITLB TOTAL     ACCESS:    2383394  HIT:    2383394  MISS:          0
cpu0_ITLB LOAD      ACCESS:    2383394  HIT:    2383394  MISS:          0
cpu0_ITLB RFO       ACCESS:          0  HIT:          0  MISS:          0
cpu0_ITLB PREFETCH  ACCESS:          0  HIT:          0  MISS:          0
cpu0_ITLB WRITEBACK ACCESS:          0  HIT:          0  MISS:          0
cpu0_ITLB TRANSLATION ACCESS:          0  HIT:          0  MISS:          0
cpu0_ITLB PREFETCH  REQUESTED:          0  ISSUED:          0  USEFUL:          0  USELESS:          0
cpu0_ITLB AVERAGE MISS LATENCY: -nan cycles
cpu0_L1I TOTAL     ACCESS:      10709  HIT:      10709  MISS:          0
cpu0_L1I LOAD      ACCESS:      10709  HIT:      10709  MISS:          0
cpu0_L1I RFO       ACCESS:          0  HIT:          0  MISS:          0
cpu0_L1I PREFETCH  ACCESS:          0  HIT:          0  MISS:          0
cpu0_L1I WRITEBACK ACCESS:          0  HIT:          0  MISS:          0
cpu0_L1I TRANSLATION ACCESS:          0  HIT:          0  MISS:          0
cpu0_L1I PREFETCH  REQUESTED:          0  ISSUED:          0  USEFUL:          0  USELESS:          0
cpu0_L1I AVERAGE MISS LATENCY: -nan cycles
cpu0_STLB TOTAL     ACCESS:     437579  HIT:     432149  MISS:       5430
cpu0_STLB LOAD      ACCESS:     280130  HIT:     275446  MISS:       4684
cpu0_STLB RFO       ACCESS:     157449  HIT:     156703  MISS:        746
cpu0_STLB PREFETCH  ACCESS:          0  HIT:          0  MISS:          0
cpu0_STLB WRITEBACK ACCESS:          0  HIT:          0  MISS:          0
cpu0_STLB TRANSLATION ACCESS:          0  HIT:          0  MISS:          0
cpu0_STLB PREFETCH  REQUESTED:          0  ISSUED:          0  USEFUL:          0  USELESS:          0
cpu0_STLB AVERAGE MISS LATENCY: 179.602 cycles
cpu0_L1D TOTAL     ACCESS:    6193983  HIT:    4951796  MISS:    1242187
cpu0_L1D LOAD      ACCESS:    5558486  HIT:    4432687  MISS:    1125799
cpu0_L1D RFO       ACCESS:     630096  HIT:     515658  MISS:     114438
cpu0_L1D PREFETCH  ACCESS:          0  HIT:          0  MISS:          0
cpu0_L1D WRITEBACK ACCESS:          0  HIT:          0  MISS:          0
cpu0_L1D TRANSLATION ACCESS:       5401  HIT:       3451  MISS:       1950
cpu0_L1D PREFETCH  REQUESTED:          0  ISSUED:          0  USEFUL:          0  USELESS:          0
cpu0_L1D AVERAGE MISS LATENCY: 122.794 cycles
cpu0_L2C TOTAL     ACCESS:    1768498  HIT:     768702  MISS:     999796
cpu0_L2C LOAD      ACCESS:    1125793  HIT:     195116  MISS:     930677
cpu0_L2C RFO       ACCESS:     114431  HIT:      79223  MISS:      35208
cpu0_L2C PREFETCH  ACCESS:     178251  HIT:     145769  MISS:      32482
cpu0_L2C WRITEBACK ACCESS:     348073  HIT:     347105  MISS:        968
cpu0_L2C TRANSLATION ACCESS:       1950  HIT:       1489  MISS:        461
cpu0_L2C PREFETCH  REQUESTED:     198484  ISSUED:     182775  USEFUL:      10280  USELESS:      22195
cpu0_L2C AVERAGE MISS LATENCY: 145.873 cycles
LLC TOTAL     ACCESS:    1232341  HIT:     628119  MISS:     604222
LLC LOAD      ACCESS:     930677  HIT:     381394  MISS:     549283
LLC RFO       ACCESS:      35208  HIT:       9613  MISS:      25595
LLC PREFETCH  ACCESS:      32507  HIT:       4890  MISS:      27617
LLC WRITEBACK ACCESS:     233488  HIT:     231960  MISS:       1528
LLC TRANSLATION ACCESS:        461  HIT:        262  MISS:        199
LLC PREFETCH  REQUESTED:          0  ISSUED:          0  USEFUL:          0  USELESS:          0
LLC AVERAGE MISS LATENCY: 206.681 cycles

DRAM Statistics
 CHANNEL 0
 RQ ROW_BUFFER_HIT:      46053  ROW_BUFFER_MISS:     556342
 DBUS AVG_CONGESTED_CYCLE:    3.95003
 WQ ROW_BUFFER_HIT:      41923  ROW_BUFFER_MISS:     161235  FULL:          0


CPU 0 Branch Prediction Accuracy: 91.1986% MPKI: 12.9566 Average ROB Occupancy at Mispredict: 52.205
Branch type MPKI
BRANCH_DIRECT_JUMP: 0
BRANCH_INDIRECT: 0
BRANCH_CONDITIONAL: 12.9566
BRANCH_DIRECT_CALL: 0
BRANCH_INDIRECT_CALL: 0
BRANCH_RETURN: 0
