./bin/champsim --warmup_instructions=25000000 --simulation_instructions=25000000 ./traces/sssp-3.trace.gz 

*** ChampSim Multicore Out-of-Order Simulator ***

Warmup Instructions: 25000000
Simulation Instructions: 25000000
Number of CPUs: 1
Off-chip DRAM Size: 4 GiB Channels: 1 Width: 64-bit Data Rate: 3200 MT/s

VirtualMemory physical capacity: 8588881920 num_ppages: 2096895
VirtualMemory page size: 4096 log2_page_size: 12

CPU 0 runs ./traces/sssp-3.trace.gz
CPU 0 Bimodal branch predictor
Basic BTB sets: 1024 ways: 8 indirect buffer size: 4096 RAS size: 64
cpu0_L2C Stream Plus Stride Prefetcher 3 4
WARNING: The extended signature CACHE::prefetch_line(ip, base_addr, pf_addr, fill_this_level, prefetch_metadata) is deprecated.
WARNING: Use CACHE::prefetch_line(pf_addr, fill_this_level, prefetch_metadata) instead.
Heartbeat CPU 0 instructions: 10000002 cycles: 2980404 heartbeat IPC: 3.35525 cumulative IPC: 3.35525 (Simulation time: 0 hr 0 min 59 sec) 
Heartbeat CPU 0 instructions: 20000001 cycles: 6362355 heartbeat IPC: 2.95687 cumulative IPC: 3.14349 (Simulation time: 0 hr 2 min 3 sec) 

Warmup complete CPU 0 instructions: 25000004 cycles: 8126938 (Simulation time: 0 hr 2 min 37 sec) 

Heartbeat CPU 0 instructions: 30000002 cycles: 25437088 heartbeat IPC: 0.524254 cumulative IPC: 0.288848 (Simulation time: 0 hr 3 min 36 sec) 
Heartbeat CPU 0 instructions: 40000001 cycles: 60984020 heartbeat IPC: 0.281318 cumulative IPC: 0.283784 (Simulation time: 0 hr 4 min 57 sec) 
Heartbeat CPU 0 instructions: 50000002 cycles: 96022846 heartbeat IPC: 0.285398 cumulative IPC: 0.284427 (Simulation time: 0 hr 6 min 22 sec) 
Finished CPU 0 instructions: 25000000 cycles: 87895926 cumulative IPC: 0.284427 (Simulation time: 0 hr 6 min 22 sec) 

ChampSim completed all CPUs

Region of Interest Statistics

CPU 0 cumulative IPC: 0.284427 instructions: 25000000 cycles: 87895926
cpu0_DTLB TOTAL     ACCESS:    6313214  HIT:    5875636  MISS:     437578
cpu0_DTLB LOAD      ACCESS:    5888403  HIT:    5608275  MISS:     280128
cpu0_DTLB RFO       ACCESS:     424811  HIT:     267361  MISS:     157450
cpu0_DTLB PREFETCH  ACCESS:          0  HIT:          0  MISS:          0
cpu0_DTLB WRITEBACK ACCESS:          0  HIT:          0  MISS:          0
cpu0_DTLB TRANSLATION ACCESS:          0  HIT:          0  MISS:          0
cpu0_DTLB PREFETCH  REQUESTED:          0  ISSUED:          0  USEFUL:          0  USELESS:          0
cpu0_DTLB AVERAGE MISS LATENCY: 11.3031 cycles
cpu0_ITLB TOTAL     ACCESS:    2383396  HIT:    2383396  MISS:          0
cpu0_ITLB LOAD      ACCESS:    2383396  HIT:    2383396  MISS:          0
cpu0_ITLB RFO       ACCESS:          0  HIT:          0  MISS:          0
cpu0_ITLB PREFETCH  ACCESS:          0  HIT:          0  MISS:          0
cpu0_ITLB WRITEBACK ACCESS:          0  HIT:          0  MISS:          0
cpu0_ITLB TRANSLATION ACCESS:          0  HIT:          0  MISS:          0
cpu0_ITLB PREFETCH  REQUESTED:          0  ISSUED:          0  USEFUL:          0  USELESS:          0
cpu0_ITLB AVERAGE MISS LATENCY: -nan cycles
cpu0_L1I TOTAL     ACCESS:      10708  HIT:      10708  MISS:          0
cpu0_L1I LOAD      ACCESS:      10708  HIT:      10708  MISS:          0
cpu0_L1I RFO       ACCESS:          0  HIT:          0  MISS:          0
cpu0_L1I PREFETCH  ACCESS:          0  HIT:          0  MISS:          0
cpu0_L1I WRITEBACK ACCESS:          0  HIT:          0  MISS:          0
cpu0_L1I TRANSLATION ACCESS:          0  HIT:          0  MISS:          0
cpu0_L1I PREFETCH  REQUESTED:          0  ISSUED:          0  USEFUL:          0  USELESS:          0
cpu0_L1I AVERAGE MISS LATENCY: -nan cycles
cpu0_STLB TOTAL     ACCESS:     437578  HIT:     432148  MISS:       5430
cpu0_STLB LOAD      ACCESS:     280128  HIT:     275443  MISS:       4685
cpu0_STLB RFO       ACCESS:     157450  HIT:     156705  MISS:        745
cpu0_STLB PREFETCH  ACCESS:          0  HIT:          0  MISS:          0
cpu0_STLB WRITEBACK ACCESS:          0  HIT:          0  MISS:          0
cpu0_STLB TRANSLATION ACCESS:          0  HIT:          0  MISS:          0
cpu0_STLB PREFETCH  REQUESTED:          0  ISSUED:          0  USEFUL:          0  USELESS:          0
cpu0_STLB AVERAGE MISS LATENCY: 178.449 cycles
cpu0_L1D TOTAL     ACCESS:    6193820  HIT:    4951636  MISS:    1242184
cpu0_L1D LOAD      ACCESS:    5558360  HIT:    4432563  MISS:    1125797
cpu0_L1D RFO       ACCESS:     630059  HIT:     515622  MISS:     114437
cpu0_L1D PREFETCH  ACCESS:          0  HIT:          0  MISS:          0
cpu0_L1D WRITEBACK ACCESS:          0  HIT:          0  MISS:          0
cpu0_L1D TRANSLATION ACCESS:       5401  HIT:       3451  MISS:       1950
cpu0_L1D PREFETCH  REQUESTED:          0  ISSUED:          0  USEFUL:          0  USELESS:          0
cpu0_L1D AVERAGE MISS LATENCY: 120.674 cycles
cpu0_L2C TOTAL     ACCESS:    1666865  HIT:     685288  MISS:     981577
cpu0_L2C LOAD      ACCESS:    1125791  HIT:     197189  MISS:     928602
cpu0_L2C RFO       ACCESS:     114431  HIT:      79409  MISS:      35022
cpu0_L2C PREFETCH  ACCESS:      76623  HIT:      60059  MISS:      16564
cpu0_L2C WRITEBACK ACCESS:     348070  HIT:     347140  MISS:        930
cpu0_L2C TRANSLATION ACCESS:       1950  HIT:       1491  MISS:        459
cpu0_L2C PREFETCH  REQUESTED:      86331  ISSUED:      79773  USEFUL:       8595  USELESS:       7982
cpu0_L2C AVERAGE MISS LATENCY: 142.222 cycles
LLC TOTAL     ACCESS:    1213981  HIT:     630449  MISS:     583532
LLC LOAD      ACCESS:     928602  HIT:     386587  MISS:     542015
LLC RFO       ACCESS:      35022  HIT:       9511  MISS:      25511
LLC PREFETCH  ACCESS:      16714  HIT:       2391  MISS:      14323
LLC WRITEBACK ACCESS:     233184  HIT:     231702  MISS:       1482
LLC TRANSLATION ACCESS:        459  HIT:        258  MISS:        201
LLC PREFETCH  REQUESTED:          0  ISSUED:          0  USEFUL:          0  USELESS:          0
LLC AVERAGE MISS LATENCY: 204.123 cycles

DRAM Statistics
 CHANNEL 0
 RQ ROW_BUFFER_HIT:      45965  ROW_BUFFER_MISS:     535813
 DBUS AVG_CONGESTED_CYCLE:    3.94695
 WQ ROW_BUFFER_HIT:      49981  ROW_BUFFER_MISS:     152062  FULL:          0


CPU 0 Branch Prediction Accuracy: 91.1986% MPKI: 12.9566 Average ROB Occupancy at Mispredict: 52.21
Branch type MPKI
BRANCH_DIRECT_JUMP: 0
BRANCH_INDIRECT: 0
BRANCH_CONDITIONAL: 12.9566
BRANCH_DIRECT_CALL: 0
BRANCH_INDIRECT_CALL: 0
BRANCH_RETURN: 0
