*** ChampSim Multicore Out-of-Order Simulator ***

Warmup Instructions: 25000000
Simulation Instructions: 25000000
Number of CPUs: 1
Off-chip DRAM Size: 4 GiB Channels: 1 Width: 64-bit Data Rate: 3200 MT/s

VirtualMemory physical capacity: 8588881920 num_ppages: 2096895
VirtualMemory page size: 4096 log2_page_size: 12

CPU 0 runs /home/harshraj/EE/Courses/CS683/PA2-race-of-the-prefetcher/traces/602.gcc_s-1850B.champsimtrace.xz
CPU 0 Bimodal branch predictor
Basic BTB sets: 1024 ways: 8 indirect buffer size: 4096 RAS size: 64
cpu0_L2C Stream Prefetcher  2 16
WARNING: The extended signature CACHE::prefetch_line(ip, base_addr, pf_addr, fill_this_level, prefetch_metadata) is deprecated.
WARNING: Use CACHE::prefetch_line(pf_addr, fill_this_level, prefetch_metadata) instead.
Heartbeat CPU 0 instructions: 10000001 cycles: 2500075 heartbeat IPC: 3.99988 cumulative IPC: 3.99988 (Simulation time: 0 hr 0 min 21 sec) 
Heartbeat CPU 0 instructions: 20000001 cycles: 5000075 heartbeat IPC: 4 cumulative IPC: 3.99994 (Simulation time: 0 hr 0 min 49 sec) 

Warmup complete CPU 0 instructions: 25000001 cycles: 6250075 (Simulation time: 0 hr 1 min 6 sec) 

Heartbeat CPU 0 instructions: 30000000 cycles: 22058374 heartbeat IPC: 0.586225 cumulative IPC: 0.31629 (Simulation time: 0 hr 1 min 38 sec) 
Heartbeat CPU 0 instructions: 40000002 cycles: 53734362 heartbeat IPC: 0.315697 cumulative IPC: 0.315894 (Simulation time: 0 hr 2 min 51 sec) 
Heartbeat CPU 0 instructions: 50000003 cycles: 85430530 heartbeat IPC: 0.315496 cumulative IPC: 0.315735 (Simulation time: 0 hr 4 min 7 sec) 
Finished CPU 0 instructions: 25000002 cycles: 79180455 cumulative IPC: 0.315735 (Simulation time: 0 hr 4 min 7 sec) 

ChampSim completed all CPUs

Region of Interest Statistics

CPU 0 cumulative IPC: 0.315735 instructions: 25000002 cycles: 79180455
cpu0_DTLB TOTAL     ACCESS:    4747952  HIT:    4739826  MISS:       8126
cpu0_DTLB LOAD      ACCESS:    3938362  HIT:    3930239  MISS:       8123
cpu0_DTLB RFO       ACCESS:     809590  HIT:     809587  MISS:          3
cpu0_DTLB PREFETCH  ACCESS:          0  HIT:          0  MISS:          0
cpu0_DTLB WRITEBACK ACCESS:          0  HIT:          0  MISS:          0
cpu0_DTLB TRANSLATION ACCESS:          0  HIT:          0  MISS:          0
cpu0_DTLB PREFETCH  REQUESTED:          0  ISSUED:          0  USEFUL:          0  USELESS:          0
cpu0_DTLB AVERAGE MISS LATENCY: 208.165 cycles
cpu0_ITLB TOTAL     ACCESS:    2857034  HIT:    2857034  MISS:          0
cpu0_ITLB LOAD      ACCESS:    2857034  HIT:    2857034  MISS:          0
cpu0_ITLB RFO       ACCESS:          0  HIT:          0  MISS:          0
cpu0_ITLB PREFETCH  ACCESS:          0  HIT:          0  MISS:          0
cpu0_ITLB WRITEBACK ACCESS:          0  HIT:          0  MISS:          0
cpu0_ITLB TRANSLATION ACCESS:          0  HIT:          0  MISS:          0
cpu0_ITLB PREFETCH  REQUESTED:          0  ISSUED:          0  USEFUL:          0  USELESS:          0
cpu0_ITLB AVERAGE MISS LATENCY: -nan cycles
cpu0_STLB TOTAL     ACCESS:       8126  HIT:        392  MISS:       7734
cpu0_STLB LOAD      ACCESS:       8123  HIT:        392  MISS:       7731
cpu0_STLB RFO       ACCESS:          3  HIT:          0  MISS:          3
cpu0_STLB PREFETCH  ACCESS:          0  HIT:          0  MISS:          0
cpu0_STLB WRITEBACK ACCESS:          0  HIT:          0  MISS:          0
cpu0_STLB TRANSLATION ACCESS:          0  HIT:          0  MISS:          0
cpu0_STLB PREFETCH  REQUESTED:          0  ISSUED:          0  USEFUL:          0  USELESS:          0
cpu0_STLB AVERAGE MISS LATENCY: 209.259 cycles
cpu0_L1D TOTAL     ACCESS:    5544320  HIT:    4941622  MISS:     602698
cpu0_L1D LOAD      ACCESS:    3378965  HIT:    2777184  MISS:     601781
cpu0_L1D RFO       ACCESS:    2157621  HIT:    2157449  MISS:        172
cpu0_L1D PREFETCH  ACCESS:          0  HIT:          0  MISS:          0
cpu0_L1D WRITEBACK ACCESS:          0  HIT:          0  MISS:          0
cpu0_L1D TRANSLATION ACCESS:       7734  HIT:       6989  MISS:        745
cpu0_L1D PREFETCH  REQUESTED:          0  ISSUED:          0  USEFUL:          0  USELESS:          0
cpu0_L1D AVERAGE MISS LATENCY: 88.0429 cycles
cpu0_L2C TOTAL     ACCESS:    1583542  HIT:    1116383  MISS:     467159
cpu0_L2C LOAD      ACCESS:     601781  HIT:     156959  MISS:     444822
cpu0_L2C RFO       ACCESS:        172  HIT:          0  MISS:        172
cpu0_L2C PREFETCH  ACCESS:     979260  HIT:     957247  MISS:      22013
cpu0_L2C WRITEBACK ACCESS:       1584  HIT:       1584  MISS:          0
cpu0_L2C TRANSLATION ACCESS:        745  HIT:        593  MISS:        152
cpu0_L2C PREFETCH  REQUESTED:     986390  ISSUED:     984447  USEFUL:      21577  USELESS:        438
cpu0_L2C AVERAGE MISS LATENCY: 108.983 cycles
LLC TOTAL     ACCESS:     467781  HIT:       1775  MISS:     466006
LLC LOAD      ACCESS:     444822  HIT:        577  MISS:     444245
LLC RFO       ACCESS:        172  HIT:          0  MISS:        172
LLC PREFETCH  ACCESS:      22013  HIT:        497  MISS:      21516
LLC WRITEBACK ACCESS:        622  HIT:        622  MISS:          0
LLC TRANSLATION ACCESS:        152  HIT:         79  MISS:         73
LLC PREFETCH  REQUESTED:          0  ISSUED:          0  USEFUL:          0  USELESS:          0
LLC AVERAGE MISS LATENCY: 88.2007 cycles

DRAM Statistics
 CHANNEL 0
 RQ ROW_BUFFER_HIT:     351332  ROW_BUFFER_MISS:     114674
 DBUS AVG_CONGESTED_CYCLE:    3.82864
 WQ ROW_BUFFER_HIT:        348  ROW_BUFFER_MISS:        270  FULL:          0


CPU 0 Branch Prediction Accuracy: 92.3646% MPKI: 19.576 Average ROB Occupancy at Mispredict: 33.4927
Branch type MPKI
BRANCH_DIRECT_JUMP: 0
BRANCH_INDIRECT: 0
BRANCH_CONDITIONAL: 19.576
BRANCH_DIRECT_CALL: 0
BRANCH_INDIRECT_CALL: 0
BRANCH_RETURN: 0
