*** ChampSim Multicore Out-of-Order Simulator ***

Warmup Instructions: 25000000
Simulation Instructions: 25000000
Number of CPUs: 1
Off-chip DRAM Size: 4 GiB Channels: 1 Width: 64-bit Data Rate: 3200 MT/s

VirtualMemory physical capacity: 8588881920 num_ppages: 2096895
VirtualMemory page size: 4096 log2_page_size: 12

CPU 0 runs /home/harshraj/EE/Courses/CS683/PA2-race-of-the-prefetcher/traces/603.bwaves_s-1740B.champsimtrace.xz
CPU 0 Bimodal branch predictor
Basic BTB sets: 1024 ways: 8 indirect buffer size: 4096 RAS size: 64
cpu0_L2C Stream Prefetcher  2 16
WARNING: The extended signature CACHE::prefetch_line(ip, base_addr, pf_addr, fill_this_level, prefetch_metadata) is deprecated.
WARNING: Use CACHE::prefetch_line(pf_addr, fill_this_level, prefetch_metadata) instead.
Heartbeat CPU 0 instructions: 10000001 cycles: 3642288 heartbeat IPC: 2.74553 cumulative IPC: 2.74553 (Simulation time: 0 hr 0 min 45 sec) 
Heartbeat CPU 0 instructions: 20000001 cycles: 7284434 heartbeat IPC: 2.74563 cumulative IPC: 2.74558 (Simulation time: 0 hr 1 min 36 sec) 

Warmup complete CPU 0 instructions: 25000001 cycles: 9105488 (Simulation time: 0 hr 2 min 2 sec) 

Heartbeat CPU 0 instructions: 30000003 cycles: 23417524 heartbeat IPC: 0.619844 cumulative IPC: 0.349356 (Simulation time: 0 hr 3 min 11 sec) 
Heartbeat CPU 0 instructions: 40000001 cycles: 52039982 heartbeat IPC: 0.349376 cumulative IPC: 0.349369 (Simulation time: 0 hr 5 min 22 sec) 
Heartbeat CPU 0 instructions: 50000001 cycles: 80656351 heartbeat IPC: 0.34945 cumulative IPC: 0.349402 (Simulation time: 0 hr 7 min 13 sec) 
Finished CPU 0 instructions: 25000000 cycles: 71550863 cumulative IPC: 0.349402 (Simulation time: 0 hr 7 min 13 sec) 

ChampSim completed all CPUs

Region of Interest Statistics

CPU 0 cumulative IPC: 0.349402 instructions: 25000000 cycles: 71550863
cpu0_DTLB TOTAL     ACCESS:    7858531  HIT:    7829328  MISS:      29203
cpu0_DTLB LOAD      ACCESS:    7303052  HIT:    7278714  MISS:      24338
cpu0_DTLB RFO       ACCESS:     555479  HIT:     550614  MISS:       4865
cpu0_DTLB PREFETCH  ACCESS:          0  HIT:          0  MISS:          0
cpu0_DTLB WRITEBACK ACCESS:          0  HIT:          0  MISS:          0
cpu0_DTLB TRANSLATION ACCESS:          0  HIT:          0  MISS:          0
cpu0_DTLB PREFETCH  REQUESTED:          0  ISSUED:          0  USEFUL:          0  USELESS:          0
cpu0_DTLB AVERAGE MISS LATENCY: 73.7077 cycles
cpu0_ITLB TOTAL     ACCESS:    2203747  HIT:    2203747  MISS:          0
cpu0_ITLB LOAD      ACCESS:    2203747  HIT:    2203747  MISS:          0
cpu0_ITLB RFO       ACCESS:          0  HIT:          0  MISS:          0
cpu0_ITLB PREFETCH  ACCESS:          0  HIT:          0  MISS:          0
cpu0_ITLB WRITEBACK ACCESS:          0  HIT:          0  MISS:          0
cpu0_ITLB TRANSLATION ACCESS:          0  HIT:          0  MISS:          0
cpu0_ITLB PREFETCH  REQUESTED:          0  ISSUED:          0  USEFUL:          0  USELESS:          0
cpu0_ITLB AVERAGE MISS LATENCY: -nan cycles
cpu0_STLB TOTAL     ACCESS:      29203  HIT:      21779  MISS:       7424
cpu0_STLB LOAD      ACCESS:      24338  HIT:      17104  MISS:       7234
cpu0_STLB RFO       ACCESS:       4865  HIT:       4675  MISS:        190
cpu0_STLB PREFETCH  ACCESS:          0  HIT:          0  MISS:          0
cpu0_STLB WRITEBACK ACCESS:          0  HIT:          0  MISS:          0
cpu0_STLB TRANSLATION ACCESS:          0  HIT:          0  MISS:          0
cpu0_STLB PREFETCH  REQUESTED:          0  ISSUED:          0  USEFUL:          0  USELESS:          0
cpu0_STLB AVERAGE MISS LATENCY: 253.746 cycles
cpu0_L1D TOTAL     ACCESS:    7902499  HIT:    7402247  MISS:     500252
cpu0_L1D LOAD      ACCESS:    6506013  HIT:    6018386  MISS:     487627
cpu0_L1D RFO       ACCESS:    1389062  HIT:    1376881  MISS:      12181
cpu0_L1D PREFETCH  ACCESS:          0  HIT:          0  MISS:          0
cpu0_L1D WRITEBACK ACCESS:          0  HIT:          0  MISS:          0
cpu0_L1D TRANSLATION ACCESS:       7424  HIT:       6980  MISS:        444
cpu0_L1D PREFETCH  REQUESTED:          0  ISSUED:          0  USEFUL:          0  USELESS:          0
cpu0_L1D AVERAGE MISS LATENCY: 1161.55 cycles
cpu0_L2C TOTAL     ACCESS:    1137335  HIT:     640916  MISS:     496419
cpu0_L2C LOAD      ACCESS:     487627  HIT:      24507  MISS:     463120
cpu0_L2C RFO       ACCESS:      12181  HIT:          0  MISS:      12181
cpu0_L2C PREFETCH  ACCESS:     624716  HIT:     603618  MISS:      21098
cpu0_L2C WRITEBACK ACCESS:      12367  HIT:      12367  MISS:          0
cpu0_L2C TRANSLATION ACCESS:        444  HIT:        424  MISS:         20
cpu0_L2C PREFETCH  REQUESTED:     673353  ISSUED:     641033  USEFUL:      20956  USELESS:        144
cpu0_L2C AVERAGE MISS LATENCY: 1202.3 cycles
LLC TOTAL     ACCESS:     517090  HIT:      20757  MISS:     496333
LLC LOAD      ACCESS:     463120  HIT:        231  MISS:     462889
LLC RFO       ACCESS:      12181  HIT:          0  MISS:      12181
LLC PREFETCH  ACCESS:      29602  HIT:       8358  MISS:      21244
LLC WRITEBACK ACCESS:      12167  HIT:      12164  MISS:          3
LLC TRANSLATION ACCESS:         20  HIT:          4  MISS:         16
LLC PREFETCH  REQUESTED:          0  ISSUED:          0  USEFUL:          0  USELESS:          0
LLC AVERAGE MISS LATENCY: 1205.55 cycles

DRAM Statistics
 CHANNEL 0
 RQ ROW_BUFFER_HIT:         18  ROW_BUFFER_MISS:     496312
 DBUS AVG_CONGESTED_CYCLE:    3.99961
 WQ ROW_BUFFER_HIT:       2779  ROW_BUFFER_MISS:       9547  FULL:          0


CPU 0 Branch Prediction Accuracy: 62.4635% MPKI: 9.3696 Average ROB Occupancy at Mispredict: 291.172
Branch type MPKI
BRANCH_DIRECT_JUMP: 0
BRANCH_INDIRECT: 0
BRANCH_CONDITIONAL: 9.3696
BRANCH_DIRECT_CALL: 0
BRANCH_INDIRECT_CALL: 0
BRANCH_RETURN: 0
