*** ChampSim Multicore Out-of-Order Simulator ***

Warmup Instructions: 25000000
Simulation Instructions: 25000000
Number of CPUs: 1
Off-chip DRAM Size: 4 GiB Channels: 1 Width: 64-bit Data Rate: 3200 MT/s

VirtualMemory physical capacity: 8588881920 num_ppages: 2096895
VirtualMemory page size: 4096 log2_page_size: 12

CPU 0 runs /home/harshraj/EE/Courses/CS683/PA2-race-of-the-prefetcher/traces/619.lbm_s-2677B.champsimtrace.xz
CPU 0 Bimodal branch predictor
Basic BTB sets: 1024 ways: 8 indirect buffer size: 4096 RAS size: 64
cpu0_L2C Stream Prefetcher  2 16
WARNING: The extended signature CACHE::prefetch_line(ip, base_addr, pf_addr, fill_this_level, prefetch_metadata) is deprecated.
WARNING: Use CACHE::prefetch_line(pf_addr, fill_this_level, prefetch_metadata) instead.
Heartbeat CPU 0 instructions: 10000001 cycles: 2594232 heartbeat IPC: 3.85471 cumulative IPC: 3.85471 (Simulation time: 0 hr 0 min 37 sec) 
Heartbeat CPU 0 instructions: 20000003 cycles: 5183885 heartbeat IPC: 3.86152 cumulative IPC: 3.85811 (Simulation time: 0 hr 1 min 12 sec) 

Warmup complete CPU 0 instructions: 25000001 cycles: 6478536 (Simulation time: 0 hr 1 min 29 sec) 

Heartbeat CPU 0 instructions: 30000002 cycles: 30110744 heartbeat IPC: 0.401174 cumulative IPC: 0.211576 (Simulation time: 0 hr 3 min 14 sec) 
Heartbeat CPU 0 instructions: 40000004 cycles: 77185386 heartbeat IPC: 0.212429 cumulative IPC: 0.212144 (Simulation time: 0 hr 6 min 23 sec) 
Heartbeat CPU 0 instructions: 50000001 cycles: 125400965 heartbeat IPC: 0.207402 cumulative IPC: 0.210221 (Simulation time: 0 hr 8 min 41 sec) 
Finished CPU 0 instructions: 25000000 cycles: 118922429 cumulative IPC: 0.210221 (Simulation time: 0 hr 8 min 41 sec) 

ChampSim completed all CPUs

Region of Interest Statistics

CPU 0 cumulative IPC: 0.210221 instructions: 25000000 cycles: 118922429
cpu0_DTLB TOTAL     ACCESS:    4450820  HIT:    4416773  MISS:      34047
cpu0_DTLB LOAD      ACCESS:    1980302  HIT:    1975681  MISS:       4621
cpu0_DTLB RFO       ACCESS:    2470518  HIT:    2441092  MISS:      29426
cpu0_DTLB PREFETCH  ACCESS:          0  HIT:          0  MISS:          0
cpu0_DTLB WRITEBACK ACCESS:          0  HIT:          0  MISS:          0
cpu0_DTLB TRANSLATION ACCESS:          0  HIT:          0  MISS:          0
cpu0_DTLB PREFETCH  REQUESTED:          0  ISSUED:          0  USEFUL:          0  USELESS:          0
cpu0_DTLB AVERAGE MISS LATENCY: 522.303 cycles
cpu0_ITLB TOTAL     ACCESS:     472313  HIT:     472313  MISS:          0
cpu0_ITLB LOAD      ACCESS:     472313  HIT:     472313  MISS:          0
cpu0_ITLB RFO       ACCESS:          0  HIT:          0  MISS:          0
cpu0_ITLB PREFETCH  ACCESS:          0  HIT:          0  MISS:          0
cpu0_ITLB WRITEBACK ACCESS:          0  HIT:          0  MISS:          0
cpu0_ITLB TRANSLATION ACCESS:          0  HIT:          0  MISS:          0
cpu0_ITLB PREFETCH  REQUESTED:          0  ISSUED:          0  USEFUL:          0  USELESS:          0
cpu0_ITLB AVERAGE MISS LATENCY: -nan cycles
cpu0_L1I TOTAL     ACCESS:     551716  HIT:     551716  MISS:          0
cpu0_L1I LOAD      ACCESS:     551716  HIT:     551716  MISS:          0
cpu0_L1I RFO       ACCESS:          0  HIT:          0  MISS:          0
cpu0_L1I PREFETCH  ACCESS:          0  HIT:          0  MISS:          0
cpu0_L1I WRITEBACK ACCESS:          0  HIT:          0  MISS:          0
cpu0_L1I TRANSLATION ACCESS:          0  HIT:          0  MISS:          0
cpu0_L1I PREFETCH  REQUESTED:          0  ISSUED:          0  USEFUL:          0  USELESS:          0
cpu0_L1I AVERAGE MISS LATENCY: -nan cycles
cpu0_STLB TOTAL     ACCESS:      34047  HIT:      15571  MISS:      18476
cpu0_STLB LOAD      ACCESS:       4621  HIT:          0  MISS:       4621
cpu0_STLB RFO       ACCESS:      29426  HIT:      15571  MISS:      13855
cpu0_STLB PREFETCH  ACCESS:          0  HIT:          0  MISS:          0
cpu0_STLB WRITEBACK ACCESS:          0  HIT:          0  MISS:          0
cpu0_STLB TRANSLATION ACCESS:          0  HIT:          0  MISS:          0
cpu0_STLB PREFETCH  REQUESTED:          0  ISSUED:          0  USEFUL:          0  USELESS:          0
cpu0_STLB AVERAGE MISS LATENCY: 945.759 cycles
cpu0_L1D TOTAL     ACCESS:    5917143  HIT:    3966566  MISS:    1950577
cpu0_L1D LOAD      ACCESS:    1404460  HIT:    1108907  MISS:     295553
cpu0_L1D RFO       ACCESS:    4495155  HIT:    2840140  MISS:    1655015
cpu0_L1D PREFETCH  ACCESS:          0  HIT:          0  MISS:          0
cpu0_L1D WRITEBACK ACCESS:          0  HIT:          0  MISS:          0
cpu0_L1D TRANSLATION ACCESS:      17528  HIT:      17519  MISS:          9
cpu0_L1D PREFETCH  REQUESTED:          0  ISSUED:          0  USEFUL:          0  USELESS:          0
cpu0_L1D AVERAGE MISS LATENCY: 763.342 cycles
cpu0_L2C TOTAL     ACCESS:    3707402  HIT:    2484035  MISS:    1223367
cpu0_L2C LOAD      ACCESS:     295553  HIT:          4  MISS:     295549
cpu0_L2C RFO       ACCESS:    1655014  HIT:     741113  MISS:     913901
cpu0_L2C PREFETCH  ACCESS:     101784  HIT:      87933  MISS:      13851
cpu0_L2C WRITEBACK ACCESS:    1655042  HIT:    1654985  MISS:         57
cpu0_L2C TRANSLATION ACCESS:          9  HIT:          0  MISS:          9
cpu0_L2C PREFETCH  REQUESTED:     114231  ISSUED:     113777  USEFUL:      12338  USELESS:       1509
cpu0_L2C AVERAGE MISS LATENCY: 1213.93 cycles
LLC TOTAL     ACCESS:    2140213  HIT:     943782  MISS:    1196431
LLC LOAD      ACCESS:     295549  HIT:          3  MISS:     295546
LLC RFO       ACCESS:     913866  HIT:      27285  MISS:     886581
LLC PREFETCH  ACCESS:      16992  HIT:       2744  MISS:      14248
LLC WRITEBACK ACCESS:     913797  HIT:     913750  MISS:         47
LLC TRANSLATION ACCESS:          9  HIT:          0  MISS:          9
LLC PREFETCH  REQUESTED:          0  ISSUED:          0  USEFUL:          0  USELESS:          0
LLC AVERAGE MISS LATENCY: 1223.49 cycles

DRAM Statistics
 CHANNEL 0
 RQ ROW_BUFFER_HIT:      34992  ROW_BUFFER_MISS:    1161392
 DBUS AVG_CONGESTED_CYCLE:     4.0028
 WQ ROW_BUFFER_HIT:      15490  ROW_BUFFER_MISS:     870845  FULL:          0


CPU 0 Branch Prediction Accuracy: 95.9842% MPKI: 0.71772 Average ROB Occupancy at Mispredict: 258.927
Branch type MPKI
BRANCH_DIRECT_JUMP: 0
BRANCH_INDIRECT: 0
BRANCH_CONDITIONAL: 0.71772
BRANCH_DIRECT_CALL: 0
BRANCH_INDIRECT_CALL: 0
BRANCH_RETURN: 0
