*** ChampSim Multicore Out-of-Order Simulator ***

Warmup Instructions: 25000000
Simulation Instructions: 25000000
Number of CPUs: 1
Off-chip DRAM Size: 4 GiB Channels: 1 Width: 64-bit Data Rate: 3200 MT/s

VirtualMemory physical capacity: 8588881920 num_ppages: 2096895
VirtualMemory page size: 4096 log2_page_size: 12

CPU 0 runs /home/harshraj/EE/Courses/CS683/PA2-race-of-the-prefetcher/traces/bc-0.trace.gz
CPU 0 Bimodal branch predictor
Basic BTB sets: 1024 ways: 8 indirect buffer size: 4096 RAS size: 64
cpu0_L2C Stream Prefetcher  2 16
WARNING: The extended signature CACHE::prefetch_line(ip, base_addr, pf_addr, fill_this_level, prefetch_metadata) is deprecated.
WARNING: Use CACHE::prefetch_line(pf_addr, fill_this_level, prefetch_metadata) instead.
Heartbeat CPU 0 instructions: 10000002 cycles: 3203424 heartbeat IPC: 3.12166 cumulative IPC: 3.12166 (Simulation time: 0 hr 0 min 47 sec) 
Heartbeat CPU 0 instructions: 20000002 cycles: 5712247 heartbeat IPC: 3.98593 cumulative IPC: 3.50125 (Simulation time: 0 hr 1 min 23 sec) 

Warmup complete CPU 0 instructions: 25000003 cycles: 6963680 (Simulation time: 0 hr 1 min 39 sec) 

Heartbeat CPU 0 instructions: 30000001 cycles: 44326296 heartbeat IPC: 0.258973 cumulative IPC: 0.133824 (Simulation time: 0 hr 2 min 51 sec) 
Heartbeat CPU 0 instructions: 40000002 cycles: 120869435 heartbeat IPC: 0.130645 cumulative IPC: 0.131688 (Simulation time: 0 hr 4 min 47 sec) 
Heartbeat CPU 0 instructions: 50000002 cycles: 197370377 heartbeat IPC: 0.130717 cumulative IPC: 0.131298 (Simulation time: 0 hr 6 min 11 sec) 
Finished CPU 0 instructions: 25000004 cycles: 190406698 cumulative IPC: 0.131298 (Simulation time: 0 hr 6 min 11 sec) 

ChampSim completed all CPUs

Region of Interest Statistics

CPU 0 cumulative IPC: 0.131298 instructions: 25000004 cycles: 190406698
cpu0_DTLB TOTAL     ACCESS:    5782302  HIT:    5048520  MISS:     733782
cpu0_DTLB LOAD      ACCESS:    4554712  HIT:    4076729  MISS:     477983
cpu0_DTLB RFO       ACCESS:    1227590  HIT:     971791  MISS:     255799
cpu0_DTLB PREFETCH  ACCESS:          0  HIT:          0  MISS:          0
cpu0_DTLB WRITEBACK ACCESS:          0  HIT:          0  MISS:          0
cpu0_DTLB TRANSLATION ACCESS:          0  HIT:          0  MISS:          0
cpu0_DTLB PREFETCH  REQUESTED:          0  ISSUED:          0  USEFUL:          0  USELESS:          0
cpu0_DTLB AVERAGE MISS LATENCY: 13.8635 cycles
cpu0_ITLB TOTAL     ACCESS:    3107161  HIT:    3107161  MISS:          0
cpu0_ITLB LOAD      ACCESS:    3107161  HIT:    3107161  MISS:          0
cpu0_ITLB RFO       ACCESS:          0  HIT:          0  MISS:          0
cpu0_ITLB PREFETCH  ACCESS:          0  HIT:          0  MISS:          0
cpu0_ITLB WRITEBACK ACCESS:          0  HIT:          0  MISS:          0
cpu0_ITLB TRANSLATION ACCESS:          0  HIT:          0  MISS:          0
cpu0_ITLB PREFETCH  REQUESTED:          0  ISSUED:          0  USEFUL:          0  USELESS:          0
cpu0_ITLB AVERAGE MISS LATENCY: -nan cycles
cpu0_L1I TOTAL     ACCESS:         86  HIT:         86  MISS:          0
cpu0_L1I LOAD      ACCESS:         86  HIT:         86  MISS:          0
cpu0_L1I RFO       ACCESS:          0  HIT:          0  MISS:          0
cpu0_L1I PREFETCH  ACCESS:          0  HIT:          0  MISS:          0
cpu0_L1I WRITEBACK ACCESS:          0  HIT:          0  MISS:          0
cpu0_L1I TRANSLATION ACCESS:          0  HIT:          0  MISS:          0
cpu0_L1I PREFETCH  REQUESTED:          0  ISSUED:          0  USEFUL:          0  USELESS:          0
cpu0_L1I AVERAGE MISS LATENCY: -nan cycles
cpu0_STLB TOTAL     ACCESS:     733782  HIT:     397124  MISS:     336658
cpu0_STLB LOAD      ACCESS:     477983  HIT:     310195  MISS:     167788
cpu0_STLB RFO       ACCESS:     255799  HIT:      86929  MISS:     168870
cpu0_STLB PREFETCH  ACCESS:          0  HIT:          0  MISS:          0
cpu0_STLB WRITEBACK ACCESS:          0  HIT:          0  MISS:          0
cpu0_STLB TRANSLATION ACCESS:          0  HIT:          0  MISS:          0
cpu0_STLB PREFETCH  REQUESTED:          0  ISSUED:          0  USEFUL:          0  USELESS:          0
cpu0_STLB AVERAGE MISS LATENCY: 10.4153 cycles
cpu0_L1D TOTAL     ACCESS:    6849600  HIT:    4762902  MISS:    2086698
cpu0_L1D LOAD      ACCESS:    5223271  HIT:    3148999  MISS:    2074272
cpu0_L1D RFO       ACCESS:    1299241  HIT:    1288209  MISS:      11032
cpu0_L1D PREFETCH  ACCESS:          0  HIT:          0  MISS:          0
cpu0_L1D WRITEBACK ACCESS:          0  HIT:          0  MISS:          0
cpu0_L1D TRANSLATION ACCESS:     327088  HIT:     325694  MISS:       1394
cpu0_L1D PREFETCH  REQUESTED:          0  ISSUED:          0  USEFUL:          0  USELESS:          0
cpu0_L1D AVERAGE MISS LATENCY: 173.575 cycles
cpu0_L2C TOTAL     ACCESS:    3510126  HIT:    1403145  MISS:    2106981
cpu0_L2C LOAD      ACCESS:    2074272  HIT:     205332  MISS:    1868940
cpu0_L2C RFO       ACCESS:      11032  HIT:        106  MISS:      10926
cpu0_L2C PREFETCH  ACCESS:     774607  HIT:     547555  MISS:     227052
cpu0_L2C WRITEBACK ACCESS:     648821  HIT:     648805  MISS:         16
cpu0_L2C TRANSLATION ACCESS:       1394  HIT:       1347  MISS:         47
cpu0_L2C PREFETCH  REQUESTED:     930790  ISSUED:     797700  USEFUL:     121191  USELESS:     106013
cpu0_L2C AVERAGE MISS LATENCY: 177.269 cycles
LLC TOTAL     ACCESS:    2742742  HIT:    1366519  MISS:    1376223
LLC LOAD      ACCESS:    1868940  HIT:     602224  MISS:    1266716
LLC RFO       ACCESS:      10926  HIT:        483  MISS:      10443
LLC PREFETCH  ACCESS:     227107  HIT:     128140  MISS:      98967
LLC WRITEBACK ACCESS:     635722  HIT:     635658  MISS:         64
LLC TRANSLATION ACCESS:         47  HIT:         14  MISS:         33
LLC PREFETCH  REQUESTED:          0  ISSUED:          0  USEFUL:          0  USELESS:          0
LLC AVERAGE MISS LATENCY: 239.285 cycles

DRAM Statistics
 CHANNEL 0
 RQ ROW_BUFFER_HIT:      59646  ROW_BUFFER_MISS:    1315851
 DBUS AVG_CONGESTED_CYCLE:    3.95659
 WQ ROW_BUFFER_HIT:        982  ROW_BUFFER_MISS:     548031  FULL:          0


CPU 0 Branch Prediction Accuracy: 81.1279% MPKI: 35.6282 Average ROB Occupancy at Mispredict: 22.03
Branch type MPKI
BRANCH_DIRECT_JUMP: 0
BRANCH_INDIRECT: 0
BRANCH_CONDITIONAL: 35.6282
BRANCH_DIRECT_CALL: 0
BRANCH_INDIRECT_CALL: 0
BRANCH_RETURN: 0
