*** ChampSim Multicore Out-of-Order Simulator ***

Warmup Instructions: 25000000
Simulation Instructions: 25000000
Number of CPUs: 1
Off-chip DRAM Size: 4 GiB Channels: 1 Width: 64-bit Data Rate: 3200 MT/s

VirtualMemory physical capacity: 8588881920 num_ppages: 2096895
VirtualMemory page size: 4096 log2_page_size: 12

CPU 0 runs /home/harshraj/EE/Courses/CS683/PA2-race-of-the-prefetcher/traces/603.bwaves_s-1740B.champsimtrace.xz
CPU 0 Bimodal branch predictor
Basic BTB sets: 1024 ways: 8 indirect buffer size: 4096 RAS size: 64
cpu0_L2C Stream Prefetcher  4 16
WARNING: The extended signature CACHE::prefetch_line(ip, base_addr, pf_addr, fill_this_level, prefetch_metadata) is deprecated.
WARNING: Use CACHE::prefetch_line(pf_addr, fill_this_level, prefetch_metadata) instead.
Heartbeat CPU 0 instructions: 10000001 cycles: 3642288 heartbeat IPC: 2.74553 cumulative IPC: 2.74553 (Simulation time: 0 hr 0 min 42 sec) 
Heartbeat CPU 0 instructions: 20000001 cycles: 7284434 heartbeat IPC: 2.74563 cumulative IPC: 2.74558 (Simulation time: 0 hr 1 min 32 sec) 

Warmup complete CPU 0 instructions: 25000001 cycles: 9105488 (Simulation time: 0 hr 1 min 57 sec) 

Heartbeat CPU 0 instructions: 30000003 cycles: 23480494 heartbeat IPC: 0.617434 cumulative IPC: 0.347826 (Simulation time: 0 hr 3 min 14 sec) 
Heartbeat CPU 0 instructions: 40000001 cycles: 52236177 heartbeat IPC: 0.347757 cumulative IPC: 0.34778 (Simulation time: 0 hr 5 min 28 sec) 
Heartbeat CPU 0 instructions: 50000001 cycles: 80975791 heartbeat IPC: 0.347952 cumulative IPC: 0.347849 (Simulation time: 0 hr 7 min 12 sec) 
Finished CPU 0 instructions: 25000000 cycles: 71870303 cumulative IPC: 0.347849 (Simulation time: 0 hr 7 min 12 sec) 

ChampSim completed all CPUs

Region of Interest Statistics

CPU 0 cumulative IPC: 0.347849 instructions: 25000000 cycles: 71870303
cpu0_DTLB TOTAL     ACCESS:    7858446  HIT:    7829250  MISS:      29196
cpu0_DTLB LOAD      ACCESS:    7302954  HIT:    7278622  MISS:      24332
cpu0_DTLB RFO       ACCESS:     555492  HIT:     550628  MISS:       4864
cpu0_DTLB PREFETCH  ACCESS:          0  HIT:          0  MISS:          0
cpu0_DTLB WRITEBACK ACCESS:          0  HIT:          0  MISS:          0
cpu0_DTLB TRANSLATION ACCESS:          0  HIT:          0  MISS:          0
cpu0_DTLB PREFETCH  REQUESTED:          0  ISSUED:          0  USEFUL:          0  USELESS:          0
cpu0_DTLB AVERAGE MISS LATENCY: 73.7232 cycles
cpu0_ITLB TOTAL     ACCESS:    2203870  HIT:    2203870  MISS:          0
cpu0_ITLB LOAD      ACCESS:    2203870  HIT:    2203870  MISS:          0
cpu0_ITLB RFO       ACCESS:          0  HIT:          0  MISS:          0
cpu0_ITLB PREFETCH  ACCESS:          0  HIT:          0  MISS:          0
cpu0_ITLB WRITEBACK ACCESS:          0  HIT:          0  MISS:          0
cpu0_ITLB TRANSLATION ACCESS:          0  HIT:          0  MISS:          0
cpu0_ITLB PREFETCH  REQUESTED:          0  ISSUED:          0  USEFUL:          0  USELESS:          0
cpu0_ITLB AVERAGE MISS LATENCY: -nan cycles
cpu0_STLB TOTAL     ACCESS:      29196  HIT:      21772  MISS:       7424
cpu0_STLB LOAD      ACCESS:      24332  HIT:      17098  MISS:       7234
cpu0_STLB RFO       ACCESS:       4864  HIT:       4674  MISS:        190
cpu0_STLB PREFETCH  ACCESS:          0  HIT:          0  MISS:          0
cpu0_STLB WRITEBACK ACCESS:          0  HIT:          0  MISS:          0
cpu0_STLB TRANSLATION ACCESS:          0  HIT:          0  MISS:          0
cpu0_STLB PREFETCH  REQUESTED:          0  ISSUED:          0  USEFUL:          0  USELESS:          0
cpu0_STLB AVERAGE MISS LATENCY: 253.746 cycles
cpu0_L1D TOTAL     ACCESS:    7902333  HIT:    7402081  MISS:     500252
cpu0_L1D LOAD      ACCESS:    6505839  HIT:    6018212  MISS:     487627
cpu0_L1D RFO       ACCESS:    1389070  HIT:    1376889  MISS:      12181
cpu0_L1D PREFETCH  ACCESS:          0  HIT:          0  MISS:          0
cpu0_L1D WRITEBACK ACCESS:          0  HIT:          0  MISS:          0
cpu0_L1D TRANSLATION ACCESS:       7424  HIT:       6980  MISS:        444
cpu0_L1D PREFETCH  REQUESTED:          0  ISSUED:          0  USEFUL:          0  USELESS:          0
cpu0_L1D AVERAGE MISS LATENCY: 1164.89 cycles
cpu0_L2C TOTAL     ACCESS:    1471451  HIT:     962520  MISS:     508931
cpu0_L2C LOAD      ACCESS:     487627  HIT:      24468  MISS:     463159
cpu0_L2C RFO       ACCESS:      12181  HIT:          0  MISS:      12181
cpu0_L2C PREFETCH  ACCESS:     958832  HIT:     925261  MISS:      33571
cpu0_L2C WRITEBACK ACCESS:      12367  HIT:      12367  MISS:          0
cpu0_L2C TRANSLATION ACCESS:        444  HIT:        424  MISS:         20
cpu0_L2C PREFETCH  REQUESTED:    1042265  ISSUED:    1000468  USEFUL:      33447  USELESS:        145
cpu0_L2C AVERAGE MISS LATENCY: 1192.85 cycles
LLC TOTAL     ACCESS:     553430  HIT:      43383  MISS:     510047
LLC LOAD      ACCESS:     463159  HIT:        272  MISS:     462887
LLC RFO       ACCESS:      12181  HIT:          0  MISS:      12181
LLC PREFETCH  ACCESS:      65894  HIT:      30934  MISS:      34960
LLC WRITEBACK ACCESS:      12176  HIT:      12173  MISS:          3
LLC TRANSLATION ACCESS:         20  HIT:          4  MISS:         16
LLC PREFETCH  REQUESTED:          0  ISSUED:          0  USEFUL:          0  USELESS:          0
LLC AVERAGE MISS LATENCY: 1227.76 cycles

DRAM Statistics
 CHANNEL 0
 RQ ROW_BUFFER_HIT:         19  ROW_BUFFER_MISS:     510025
 DBUS AVG_CONGESTED_CYCLE:    3.99952
 WQ ROW_BUFFER_HIT:       2742  ROW_BUFFER_MISS:       9583  FULL:          0


CPU 0 Branch Prediction Accuracy: 62.4635% MPKI: 9.3696 Average ROB Occupancy at Mispredict: 291.175
Branch type MPKI
BRANCH_DIRECT_JUMP: 0
BRANCH_INDIRECT: 0
BRANCH_CONDITIONAL: 9.3696
BRANCH_DIRECT_CALL: 0
BRANCH_INDIRECT_CALL: 0
BRANCH_RETURN: 0
