*** ChampSim Multicore Out-of-Order Simulator ***

Warmup Instructions: 25000000
Simulation Instructions: 25000000
Number of CPUs: 1
Off-chip DRAM Size: 4 GiB Channels: 1 Width: 64-bit Data Rate: 3200 MT/s

VirtualMemory physical capacity: 8588881920 num_ppages: 2096895
VirtualMemory page size: 4096 log2_page_size: 12

CPU 0 runs /home/harshraj/EE/Courses/CS683/PA2-race-of-the-prefetcher/traces/619.lbm_s-2677B.champsimtrace.xz
CPU 0 Bimodal branch predictor
Basic BTB sets: 1024 ways: 8 indirect buffer size: 4096 RAS size: 64
cpu0_L2C Stream Prefetcher  4 16
WARNING: The extended signature CACHE::prefetch_line(ip, base_addr, pf_addr, fill_this_level, prefetch_metadata) is deprecated.
WARNING: Use CACHE::prefetch_line(pf_addr, fill_this_level, prefetch_metadata) instead.
Heartbeat CPU 0 instructions: 10000001 cycles: 2595123 heartbeat IPC: 3.85338 cumulative IPC: 3.85338 (Simulation time: 0 hr 0 min 33 sec) 
Heartbeat CPU 0 instructions: 20000001 cycles: 5185510 heartbeat IPC: 3.86043 cumulative IPC: 3.8569 (Simulation time: 0 hr 1 min 9 sec) 

Warmup complete CPU 0 instructions: 25000004 cycles: 6480742 (Simulation time: 0 hr 1 min 28 sec) 

Heartbeat CPU 0 instructions: 30000002 cycles: 30192360 heartbeat IPC: 0.39989 cumulative IPC: 0.210867 (Simulation time: 0 hr 3 min 23 sec) 
Heartbeat CPU 0 instructions: 40000004 cycles: 77436118 heartbeat IPC: 0.211668 cumulative IPC: 0.2114 (Simulation time: 0 hr 6 min 33 sec) 
Heartbeat CPU 0 instructions: 50000001 cycles: 125792229 heartbeat IPC: 0.206799 cumulative IPC: 0.209536 (Simulation time: 0 hr 8 min 53 sec) 
Finished CPU 0 instructions: 25000002 cycles: 119311488 cumulative IPC: 0.209536 (Simulation time: 0 hr 8 min 53 sec) 

ChampSim completed all CPUs

Region of Interest Statistics

CPU 0 cumulative IPC: 0.209536 instructions: 25000002 cycles: 119311488
cpu0_DTLB TOTAL     ACCESS:    4451787  HIT:    4417740  MISS:      34047
cpu0_DTLB LOAD      ACCESS:    1981547  HIT:    1976926  MISS:       4621
cpu0_DTLB RFO       ACCESS:    2470240  HIT:    2440814  MISS:      29426
cpu0_DTLB PREFETCH  ACCESS:          0  HIT:          0  MISS:          0
cpu0_DTLB WRITEBACK ACCESS:          0  HIT:          0  MISS:          0
cpu0_DTLB TRANSLATION ACCESS:          0  HIT:          0  MISS:          0
cpu0_DTLB PREFETCH  REQUESTED:          0  ISSUED:          0  USEFUL:          0  USELESS:          0
cpu0_DTLB AVERAGE MISS LATENCY: 519.173 cycles
cpu0_ITLB TOTAL     ACCESS:     472396  HIT:     472396  MISS:          0
cpu0_ITLB LOAD      ACCESS:     472396  HIT:     472396  MISS:          0
cpu0_ITLB RFO       ACCESS:          0  HIT:          0  MISS:          0
cpu0_ITLB PREFETCH  ACCESS:          0  HIT:          0  MISS:          0
cpu0_ITLB WRITEBACK ACCESS:          0  HIT:          0  MISS:          0
cpu0_ITLB TRANSLATION ACCESS:          0  HIT:          0  MISS:          0
cpu0_ITLB PREFETCH  REQUESTED:          0  ISSUED:          0  USEFUL:          0  USELESS:          0
cpu0_ITLB AVERAGE MISS LATENCY: -nan cycles
cpu0_L1I TOTAL     ACCESS:     551140  HIT:     551140  MISS:          0
cpu0_L1I LOAD      ACCESS:     551140  HIT:     551140  MISS:          0
cpu0_L1I RFO       ACCESS:          0  HIT:          0  MISS:          0
cpu0_L1I PREFETCH  ACCESS:          0  HIT:          0  MISS:          0
cpu0_L1I WRITEBACK ACCESS:          0  HIT:          0  MISS:          0
cpu0_L1I TRANSLATION ACCESS:          0  HIT:          0  MISS:          0
cpu0_L1I PREFETCH  REQUESTED:          0  ISSUED:          0  USEFUL:          0  USELESS:          0
cpu0_L1I AVERAGE MISS LATENCY: -nan cycles
cpu0_STLB TOTAL     ACCESS:      34047  HIT:      15571  MISS:      18476
cpu0_STLB LOAD      ACCESS:       4621  HIT:          0  MISS:       4621
cpu0_STLB RFO       ACCESS:      29426  HIT:      15571  MISS:      13855
cpu0_STLB PREFETCH  ACCESS:          0  HIT:          0  MISS:          0
cpu0_STLB WRITEBACK ACCESS:          0  HIT:          0  MISS:          0
cpu0_STLB TRANSLATION ACCESS:          0  HIT:          0  MISS:          0
cpu0_STLB PREFETCH  REQUESTED:          0  ISSUED:          0  USEFUL:          0  USELESS:          0
cpu0_STLB AVERAGE MISS LATENCY: 939.987 cycles
cpu0_L1D TOTAL     ACCESS:    5917826  HIT:    3967255  MISS:    1950571
cpu0_L1D LOAD      ACCESS:    1404972  HIT:    1109423  MISS:     295549
cpu0_L1D RFO       ACCESS:    4495332  HIT:    2840319  MISS:    1655013
cpu0_L1D PREFETCH  ACCESS:          0  HIT:          0  MISS:          0
cpu0_L1D WRITEBACK ACCESS:          0  HIT:          0  MISS:          0
cpu0_L1D TRANSLATION ACCESS:      17522  HIT:      17513  MISS:          9
cpu0_L1D PREFETCH  REQUESTED:          0  ISSUED:          0  USEFUL:          0  USELESS:          0
cpu0_L1D AVERAGE MISS LATENCY: 766.723 cycles
cpu0_L2C TOTAL     ACCESS:    3808554  HIT:    2575141  MISS:    1233413
cpu0_L2C LOAD      ACCESS:     295548  HIT:          2  MISS:     295546
cpu0_L2C RFO       ACCESS:    1655013  HIT:     740182  MISS:     914831
cpu0_L2C PREFETCH  ACCESS:     202941  HIT:     179969  MISS:      22972
cpu0_L2C WRITEBACK ACCESS:    1655043  HIT:    1654988  MISS:         55
cpu0_L2C TRANSLATION ACCESS:          9  HIT:          0  MISS:          9
cpu0_L2C PREFETCH  REQUESTED:     225123  ISSUED:     224244  USEFUL:      21054  USELESS:       1918
cpu0_L2C AVERAGE MISS LATENCY: 1219.85 cycles
LLC TOTAL     ACCESS:    2153993  HIT:     948107  MISS:    1205886
LLC LOAD      ACCESS:     295546  HIT:          0  MISS:     295546
LLC RFO       ACCESS:     914789  HIT:      28208  MISS:     886581
LLC PREFETCH  ACCESS:      28950  HIT:       5242  MISS:      23708
LLC WRITEBACK ACCESS:     914699  HIT:     914657  MISS:         42
LLC TRANSLATION ACCESS:          9  HIT:          0  MISS:          9
LLC PREFETCH  REQUESTED:          0  ISSUED:          0  USEFUL:          0  USELESS:          0
LLC AVERAGE MISS LATENCY: 1233.52 cycles

DRAM Statistics
 CHANNEL 0
 RQ ROW_BUFFER_HIT:      34483  ROW_BUFFER_MISS:    1171361
 DBUS AVG_CONGESTED_CYCLE:    4.00304
 WQ ROW_BUFFER_HIT:      14203  ROW_BUFFER_MISS:     872224  FULL:          0


CPU 0 Branch Prediction Accuracy: 95.9842% MPKI: 0.71772 Average ROB Occupancy at Mispredict: 258.885
Branch type MPKI
BRANCH_DIRECT_JUMP: 0
BRANCH_INDIRECT: 0
BRANCH_CONDITIONAL: 0.71772
BRANCH_DIRECT_CALL: 0
BRANCH_INDIRECT_CALL: 0
BRANCH_RETURN: 0
