*** ChampSim Multicore Out-of-Order Simulator ***

Warmup Instructions: 25000000
Simulation Instructions: 25000000
Number of CPUs: 1
Off-chip DRAM Size: 4 GiB Channels: 1 Width: 64-bit Data Rate: 3200 MT/s

VirtualMemory physical capacity: 8588881920 num_ppages: 2096895
VirtualMemory page size: 4096 log2_page_size: 12

CPU 0 runs /home/harshraj/EE/Courses/CS683/PA2-race-of-the-prefetcher/traces/619.lbm_s-2677B.champsimtrace.xz
CPU 0 Bimodal branch predictor
Basic BTB sets: 1024 ways: 8 indirect buffer size: 4096 RAS size: 64
cpu0_L2C Stream Prefetcher  3 16
WARNING: The extended signature CACHE::prefetch_line(ip, base_addr, pf_addr, fill_this_level, prefetch_metadata) is deprecated.
WARNING: Use CACHE::prefetch_line(pf_addr, fill_this_level, prefetch_metadata) instead.
Heartbeat CPU 0 instructions: 10000001 cycles: 2594614 heartbeat IPC: 3.85414 cumulative IPC: 3.85414 (Simulation time: 0 hr 0 min 39 sec) 
Heartbeat CPU 0 instructions: 20000003 cycles: 5184536 heartbeat IPC: 3.86112 cumulative IPC: 3.85763 (Simulation time: 0 hr 1 min 17 sec) 

Warmup complete CPU 0 instructions: 25000001 cycles: 6479572 (Simulation time: 0 hr 1 min 36 sec) 

Heartbeat CPU 0 instructions: 30000002 cycles: 30144959 heartbeat IPC: 0.400634 cumulative IPC: 0.211279 (Simulation time: 0 hr 3 min 41 sec) 
Heartbeat CPU 0 instructions: 40000004 cycles: 77321883 heartbeat IPC: 0.211968 cumulative IPC: 0.211738 (Simulation time: 0 hr 6 min 33 sec) 
Heartbeat CPU 0 instructions: 50000001 cycles: 125613048 heartbeat IPC: 0.207077 cumulative IPC: 0.209849 (Simulation time: 0 hr 8 min 43 sec) 
Finished CPU 0 instructions: 25000000 cycles: 119133476 cumulative IPC: 0.209849 (Simulation time: 0 hr 8 min 43 sec) 

ChampSim completed all CPUs

Region of Interest Statistics

CPU 0 cumulative IPC: 0.209849 instructions: 25000000 cycles: 119133476
cpu0_DTLB TOTAL     ACCESS:    4451645  HIT:    4417598  MISS:      34047
cpu0_DTLB LOAD      ACCESS:    1981339  HIT:    1976718  MISS:       4621
cpu0_DTLB RFO       ACCESS:    2470306  HIT:    2440880  MISS:      29426
cpu0_DTLB PREFETCH  ACCESS:          0  HIT:          0  MISS:          0
cpu0_DTLB WRITEBACK ACCESS:          0  HIT:          0  MISS:          0
cpu0_DTLB TRANSLATION ACCESS:          0  HIT:          0  MISS:          0
cpu0_DTLB PREFETCH  REQUESTED:          0  ISSUED:          0  USEFUL:          0  USELESS:          0
cpu0_DTLB AVERAGE MISS LATENCY: 515.649 cycles
cpu0_ITLB TOTAL     ACCESS:     472075  HIT:     472075  MISS:          0
cpu0_ITLB LOAD      ACCESS:     472075  HIT:     472075  MISS:          0
cpu0_ITLB RFO       ACCESS:          0  HIT:          0  MISS:          0
cpu0_ITLB PREFETCH  ACCESS:          0  HIT:          0  MISS:          0
cpu0_ITLB WRITEBACK ACCESS:          0  HIT:          0  MISS:          0
cpu0_ITLB TRANSLATION ACCESS:          0  HIT:          0  MISS:          0
cpu0_ITLB PREFETCH  REQUESTED:          0  ISSUED:          0  USEFUL:          0  USELESS:          0
cpu0_ITLB AVERAGE MISS LATENCY: -nan cycles
cpu0_L1I TOTAL     ACCESS:     551822  HIT:     551822  MISS:          0
cpu0_L1I LOAD      ACCESS:     551822  HIT:     551822  MISS:          0
cpu0_L1I RFO       ACCESS:          0  HIT:          0  MISS:          0
cpu0_L1I PREFETCH  ACCESS:          0  HIT:          0  MISS:          0
cpu0_L1I WRITEBACK ACCESS:          0  HIT:          0  MISS:          0
cpu0_L1I TRANSLATION ACCESS:          0  HIT:          0  MISS:          0
cpu0_L1I PREFETCH  REQUESTED:          0  ISSUED:          0  USEFUL:          0  USELESS:          0
cpu0_L1I AVERAGE MISS LATENCY: -nan cycles
cpu0_STLB TOTAL     ACCESS:      34047  HIT:      15571  MISS:      18476
cpu0_STLB LOAD      ACCESS:       4621  HIT:          0  MISS:       4621
cpu0_STLB RFO       ACCESS:      29426  HIT:      15571  MISS:      13855
cpu0_STLB PREFETCH  ACCESS:          0  HIT:          0  MISS:          0
cpu0_STLB WRITEBACK ACCESS:          0  HIT:          0  MISS:          0
cpu0_STLB TRANSLATION ACCESS:          0  HIT:          0  MISS:          0
cpu0_STLB PREFETCH  REQUESTED:          0  ISSUED:          0  USEFUL:          0  USELESS:          0
cpu0_STLB AVERAGE MISS LATENCY: 933.497 cycles
cpu0_L1D TOTAL     ACCESS:    5916825  HIT:    3966252  MISS:    1950573
cpu0_L1D LOAD      ACCESS:    1404722  HIT:    1109173  MISS:     295549
cpu0_L1D RFO       ACCESS:    4494575  HIT:    2839560  MISS:    1655015
cpu0_L1D PREFETCH  ACCESS:          0  HIT:          0  MISS:          0
cpu0_L1D WRITEBACK ACCESS:          0  HIT:          0  MISS:          0
cpu0_L1D TRANSLATION ACCESS:      17528  HIT:      17519  MISS:          9
cpu0_L1D PREFETCH  REQUESTED:          0  ISSUED:          0  USEFUL:          0  USELESS:          0
cpu0_L1D AVERAGE MISS LATENCY: 765.125 cycles
cpu0_L2C TOTAL     ACCESS:    3758282  HIT:    2529728  MISS:    1228554
cpu0_L2C LOAD      ACCESS:     295549  HIT:          2  MISS:     295547
cpu0_L2C RFO       ACCESS:    1655014  HIT:     740485  MISS:     914529
cpu0_L2C PREFETCH  ACCESS:     152668  HIT:     134254  MISS:      18414
cpu0_L2C WRITEBACK ACCESS:    1655042  HIT:    1654987  MISS:         55
cpu0_L2C TRANSLATION ACCESS:          9  HIT:          0  MISS:          9
cpu0_L2C PREFETCH  REQUESTED:     169974  ISSUED:     169330  USEFUL:      16722  USELESS:       1691
cpu0_L2C AVERAGE MISS LATENCY: 1216.6 cycles
LLC TOTAL     ACCESS:    2147398  HIT:     946260  MISS:    1201138
LLC LOAD      ACCESS:     295547  HIT:          2  MISS:     295545
LLC RFO       ACCESS:     914484  HIT:      27901  MISS:     886583
LLC PREFETCH  ACCESS:      22955  HIT:       3996  MISS:      18959
LLC WRITEBACK ACCESS:     914403  HIT:     914361  MISS:         42
LLC TRANSLATION ACCESS:          9  HIT:          0  MISS:          9
LLC PREFETCH  REQUESTED:          0  ISSUED:          0  USEFUL:          0  USELESS:          0
LLC AVERAGE MISS LATENCY: 1228.21 cycles

DRAM Statistics
 CHANNEL 0
 RQ ROW_BUFFER_HIT:      34966  ROW_BUFFER_MISS:    1166130
 DBUS AVG_CONGESTED_CYCLE:    4.00298
 WQ ROW_BUFFER_HIT:      14811  ROW_BUFFER_MISS:     871307  FULL:          0


CPU 0 Branch Prediction Accuracy: 95.9842% MPKI: 0.71772 Average ROB Occupancy at Mispredict: 259.03
Branch type MPKI
BRANCH_DIRECT_JUMP: 0
BRANCH_INDIRECT: 0
BRANCH_CONDITIONAL: 0.71772
BRANCH_DIRECT_CALL: 0
BRANCH_INDIRECT_CALL: 0
BRANCH_RETURN: 0
