*** ChampSim Multicore Out-of-Order Simulator ***

Warmup Instructions: 25000000
Simulation Instructions: 25000000
Number of CPUs: 1
Off-chip DRAM Size: 4 GiB Channels: 1 Width: 64-bit Data Rate: 3200 MT/s

VirtualMemory physical capacity: 8588881920 num_ppages: 2096895
VirtualMemory page size: 4096 log2_page_size: 12

CPU 0 runs /home/harshraj/EE/Courses/CS683/PA2-race-of-the-prefetcher/traces/bc-0.trace.gz
CPU 0 Bimodal branch predictor
Basic BTB sets: 1024 ways: 8 indirect buffer size: 4096 RAS size: 64
cpu0_L2C Stream Prefetcher  3 16
WARNING: The extended signature CACHE::prefetch_line(ip, base_addr, pf_addr, fill_this_level, prefetch_metadata) is deprecated.
WARNING: Use CACHE::prefetch_line(pf_addr, fill_this_level, prefetch_metadata) instead.
Heartbeat CPU 0 instructions: 10000002 cycles: 3203426 heartbeat IPC: 3.12166 cumulative IPC: 3.12166 (Simulation time: 0 hr 0 min 38 sec) 
Heartbeat CPU 0 instructions: 20000001 cycles: 5712251 heartbeat IPC: 3.98593 cumulative IPC: 3.50125 (Simulation time: 0 hr 1 min 12 sec) 

Warmup complete CPU 0 instructions: 25000001 cycles: 6963683 (Simulation time: 0 hr 1 min 28 sec) 

Heartbeat CPU 0 instructions: 30000001 cycles: 44940136 heartbeat IPC: 0.254921 cumulative IPC: 0.131661 (Simulation time: 0 hr 2 min 32 sec) 
Heartbeat CPU 0 instructions: 40000002 cycles: 122758586 heartbeat IPC: 0.128504 cumulative IPC: 0.129539 (Simulation time: 0 hr 4 min 19 sec) 
Heartbeat CPU 0 instructions: 50000002 cycles: 200592654 heartbeat IPC: 0.128478 cumulative IPC: 0.129113 (Simulation time: 0 hr 5 min 47 sec) 
Finished CPU 0 instructions: 25000001 cycles: 193628971 cumulative IPC: 0.129113 (Simulation time: 0 hr 5 min 47 sec) 

ChampSim completed all CPUs

Region of Interest Statistics

CPU 0 cumulative IPC: 0.129113 instructions: 25000001 cycles: 193628971
cpu0_DTLB TOTAL     ACCESS:    5782468  HIT:    5048686  MISS:     733782
cpu0_DTLB LOAD      ACCESS:    4554913  HIT:    4076931  MISS:     477982
cpu0_DTLB RFO       ACCESS:    1227555  HIT:     971755  MISS:     255800
cpu0_DTLB PREFETCH  ACCESS:          0  HIT:          0  MISS:          0
cpu0_DTLB WRITEBACK ACCESS:          0  HIT:          0  MISS:          0
cpu0_DTLB TRANSLATION ACCESS:          0  HIT:          0  MISS:          0
cpu0_DTLB PREFETCH  REQUESTED:          0  ISSUED:          0  USEFUL:          0  USELESS:          0
cpu0_DTLB AVERAGE MISS LATENCY: 13.8828 cycles
cpu0_ITLB TOTAL     ACCESS:    3107161  HIT:    3107161  MISS:          0
cpu0_ITLB LOAD      ACCESS:    3107161  HIT:    3107161  MISS:          0
cpu0_ITLB RFO       ACCESS:          0  HIT:          0  MISS:          0
cpu0_ITLB PREFETCH  ACCESS:          0  HIT:          0  MISS:          0
cpu0_ITLB WRITEBACK ACCESS:          0  HIT:          0  MISS:          0
cpu0_ITLB TRANSLATION ACCESS:          0  HIT:          0  MISS:          0
cpu0_ITLB PREFETCH  REQUESTED:          0  ISSUED:          0  USEFUL:          0  USELESS:          0
cpu0_ITLB AVERAGE MISS LATENCY: -nan cycles
cpu0_L1I TOTAL     ACCESS:         86  HIT:         86  MISS:          0
cpu0_L1I LOAD      ACCESS:         86  HIT:         86  MISS:          0
cpu0_L1I RFO       ACCESS:          0  HIT:          0  MISS:          0
cpu0_L1I PREFETCH  ACCESS:          0  HIT:          0  MISS:          0
cpu0_L1I WRITEBACK ACCESS:          0  HIT:          0  MISS:          0
cpu0_L1I TRANSLATION ACCESS:          0  HIT:          0  MISS:          0
cpu0_L1I PREFETCH  REQUESTED:          0  ISSUED:          0  USEFUL:          0  USELESS:          0
cpu0_L1I AVERAGE MISS LATENCY: -nan cycles
cpu0_STLB TOTAL     ACCESS:     733782  HIT:     397124  MISS:     336658
cpu0_STLB LOAD      ACCESS:     477982  HIT:     310196  MISS:     167786
cpu0_STLB RFO       ACCESS:     255800  HIT:      86928  MISS:     168872
cpu0_STLB PREFETCH  ACCESS:          0  HIT:          0  MISS:          0
cpu0_STLB WRITEBACK ACCESS:          0  HIT:          0  MISS:          0
cpu0_STLB TRANSLATION ACCESS:          0  HIT:          0  MISS:          0
cpu0_STLB PREFETCH  REQUESTED:          0  ISSUED:          0  USEFUL:          0  USELESS:          0
cpu0_STLB AVERAGE MISS LATENCY: 10.4574 cycles
cpu0_L1D TOTAL     ACCESS:    6850338  HIT:    4763642  MISS:    2086696
cpu0_L1D LOAD      ACCESS:    5223916  HIT:    3149646  MISS:    2074270
cpu0_L1D RFO       ACCESS:    1299339  HIT:    1288307  MISS:      11032
cpu0_L1D PREFETCH  ACCESS:          0  HIT:          0  MISS:          0
cpu0_L1D WRITEBACK ACCESS:          0  HIT:          0  MISS:          0
cpu0_L1D TRANSLATION ACCESS:     327083  HIT:     325689  MISS:       1394
cpu0_L1D PREFETCH  REQUESTED:          0  ISSUED:          0  USEFUL:          0  USELESS:          0
cpu0_L1D AVERAGE MISS LATENCY: 177.651 cycles
cpu0_L2C TOTAL     ACCESS:    3918505  HIT:    1695665  MISS:    2222840
cpu0_L2C LOAD      ACCESS:    2074270  HIT:     195298  MISS:    1878972
cpu0_L2C RFO       ACCESS:      11032  HIT:         98  MISS:      10934
cpu0_L2C PREFETCH  ACCESS:    1182988  HIT:     850118  MISS:     332870
cpu0_L2C WRITEBACK ACCESS:     648821  HIT:     648805  MISS:         16
cpu0_L2C TRANSLATION ACCESS:       1394  HIT:       1346  MISS:         48
cpu0_L2C PREFETCH  REQUESTED:    1408136  ISSUED:    1222896  USEFUL:     184019  USELESS:     149026
cpu0_L2C AVERAGE MISS LATENCY: 180.191 cycles
LLC TOTAL     ACCESS:    2859401  HIT:    1410052  MISS:    1449349
LLC LOAD      ACCESS:    1878972  HIT:     586210  MISS:    1292762
LLC RFO       ACCESS:      10934  HIT:        452  MISS:      10482
LLC PREFETCH  ACCESS:     332981  HIT:     186963  MISS:     146018
LLC WRITEBACK ACCESS:     636466  HIT:     636413  MISS:         53
LLC TRANSLATION ACCESS:         48  HIT:         14  MISS:         34
LLC PREFETCH  REQUESTED:          0  ISSUED:          0  USEFUL:          0  USELESS:          0
LLC AVERAGE MISS LATENCY: 244.215 cycles

DRAM Statistics
 CHANNEL 0
 RQ ROW_BUFFER_HIT:      61465  ROW_BUFFER_MISS:    1387192
 DBUS AVG_CONGESTED_CYCLE:    3.95695
 WQ ROW_BUFFER_HIT:       1000  ROW_BUFFER_MISS:     553269  FULL:          0


CPU 0 Branch Prediction Accuracy: 81.1279% MPKI: 35.6282 Average ROB Occupancy at Mispredict: 21.8357
Branch type MPKI
BRANCH_DIRECT_JUMP: 0
BRANCH_INDIRECT: 0
BRANCH_CONDITIONAL: 35.6282
BRANCH_DIRECT_CALL: 0
BRANCH_INDIRECT_CALL: 0
BRANCH_RETURN: 0
